miqcp/testcases/nesta_case189_edin__sad.m
%%%%%%%%%%%%%%%%%%%%%%%%%%%%%%%%%%%%%%%%%%%%%%%%%%%%%%%%%%%%%%%%%%%%%%%%%%%
%%%%                                                                  %%%%%
%%%%      NICTA Energy System Test Case Archive (NESTA) - v0.7.0      %%%%%
%%%%           Optimal Power Flow - Small Angle Difference            %%%%%
%%%%                         05 - June - 2017                         %%%%%
%%%%                                                                  %%%%%
%%%%%%%%%%%%%%%%%%%%%%%%%%%%%%%%%%%%%%%%%%%%%%%%%%%%%%%%%%%%%%%%%%%%%%%%%%%
function mpc = nesta_case189_edin__sad
mpc.version = '2';
mpc.baseMVA = 100.0;

%% area data
%	area	refbus
mpc.areas = [
	1	 1;
];

%% bus data
%	bus_i	type	Pd	Qd	Gs	Bs	area	Vm	Va	baseKV	zone	Vmax	Vmin
mpc.bus = [
	1	 1	 0.0	 0.0	 0.0	 0.0	 1	    1.04911	   -8.36872	 220.0	 1	    1.10000	    0.90000;
	2	 2	 0.59	 0.26	 0.0	 0.0	 1	    1.08380	   -1.22364	 13.8	 1	    1.10000	    0.90000;
	3	 2	 3.52	 1.53	 0.0	 0.0	 1	    1.08241	   -1.90615	 13.8	 1	    1.10000	    0.90000;
	4	 2	 0.0	 0.0	 0.0	 0.0	 1	    1.06711	   -8.39413	 13.8	 1	    1.10000	    0.90000;
	5	 1	 0.0	 0.0	 0.0	 0.0	 1	    1.07616	   -2.06445	 66.0	 1	    1.10000	    0.90000;
	6	 1	 0.0	 0.0	 0.0	 0.0	 1	    1.07616	   -2.06479	 66.0	 1	    1.10000	    0.90000;
	7	 1	 0.0	 0.0	 0.0	 0.0	 1	    1.06753	   -6.62089	 220.0	 1	    1.10000	    0.90000;
	8	 2	 0.0	 0.0	 0.0	 0.0	 1	    1.08580	   -4.73525	 10.5	 1	    1.10000	    0.90000;
	9	 2	 0.0	 0.0	 0.0	 0.0	 1	    1.08696	   -4.61163	 10.5	 1	    1.10000	    0.90000;
	10	 3	 0.0	 0.0	 0.0	 0.0	 1	    1.10000	   -0.00000	 10.5	 1	    1.10000	    0.90000;
	11	 1	 0.0	 0.0	 0.0	 0.0	 1	    1.07694	   -7.05448	 132.0	 1	    1.10000	    0.90000;
	12	 1	 0.0	 0.0	 0.0	 0.0	 1	    1.06474	   -6.79914	 220.0	 1	    1.10000	    0.90000;
	13	 2	 0.0	 0.0	 0.0	 0.0	 1	    1.10000	    1.24182	 13.8	 1	    1.10000	    0.90000;
	14	 2	 0.0	 0.0	 0.0	 0.0	 1	    1.10000	   -4.06275	 13.8	 1	    1.10000	    0.90000;
	15	 1	 0.0	 0.0	 0.0	 0.0	 1	    1.06837	   -6.63107	 220.0	 1	    1.10000	    0.90000;
	16	 2	 0.0	 0.0	 0.0	 0.0	 1	    1.08844	   -6.68468	 11.0	 1	    1.10000	    0.90000;
	17	 1	 0.0	 0.0	 0.0	 0.0	 1	    1.04959	   -8.52990	 220.0	 1	    1.10000	    0.90000;
	18	 2	 0.0	 0.0	 0.0	 0.0	 1	    1.09861	   -8.66283	 11.0	 1	    1.10000	    0.90000;
	19	 2	 0.0	 0.0	 0.0	 0.0	 1	    1.09619	   -0.71947	 11.0	 1	    1.10000	    0.90000;
	20	 1	 0.0	 0.0	 0.0	 0.0	 1	    1.04974	   -8.53080	 220.0	 1	    1.10000	    0.90000;
	21	 1	 0.0	 0.0	 0.0	 0.0	 1	    1.04604	   -8.68450	 220.0	 1	    1.10000	    0.90000;
	22	 1	 7.33	 7.1	 0.0	 0.0	 1	    1.03426	   -3.74597	 66.0	 1	    1.10000	    0.90000;
	23	 1	 2.84	 1.89	 0.0	 0.0	 1	    1.05249	   -3.06258	 66.0	 1	    1.10000	    0.90000;
	24	 1	 5.61	 4.73	 0.0	 0.0	 1	    1.03257	   -4.01689	 66.0	 1	    1.10000	    0.90000;
	25	 1	 0.0	 0.0	 0.0	 0.0	 1	    1.02908	  -10.30009	 220.0	 1	    1.10000	    0.90000;
	26	 1	 0.0	 0.0	 0.0	 0.0	 1	    1.04425	   -7.78815	 132.0	 1	    1.10000	    0.90000;
	27	 2	 0.0	 0.0	 0.0	 0.0	 1	    1.05646	   -7.69217	 10.5	 1	    1.10000	    0.90000;
	28	 2	 0.0	 0.0	 0.0	 0.0	 1	    1.05839	   -5.81528	 10.5	 1	    1.10000	    0.90000;
	29	 2	 0.0	 0.0	 0.0	 0.0	 1	    1.05142	   -7.13548	 10.5	 1	    1.10000	    0.90000;
	30	 1	 0.0	 0.0	 0.0	 0.0	 1	    1.04570	   -4.71467	 66.0	 1	    1.10000	    0.90000;
	31	 1	 0.0	 0.0	 0.0	 0.0	 1	    1.06195	   -3.88938	 66.0	 1	    1.10000	    0.90000;
	32	 2	 0.0	 0.0	 0.0	 0.0	 1	    1.06892	   -3.23925	 6.6	 1	    1.10000	    0.90000;
	33	 2	 0.0	 0.0	 0.0	 0.0	 1	    1.07318	   -3.35274	 6.6	 1	    1.10000	    0.90000;
	34	 1	 0.0	 0.0	 0.0	 0.0	 1	    1.06195	   -3.88938	 6.6	 1	    1.10000	    0.90000;
	35	 1	 0.0	 0.0	 0.0	 0.0	 1	    1.04863	   -4.32183	 66.0	 1	    1.10000	    0.90000;
	36	 2	 0.0	 0.0	 0.0	 0.0	 1	    1.05228	   -2.57650	 6.6	 1	    1.10000	    0.90000;
	37	 1	 2.83	 1.23	 0.0	 0.0	 1	    1.02414	   -6.63321	 11.0	 1	    1.10000	    0.90000;
	38	 1	 5.85	 3.53	 0.0	 0.0	 1	    1.04862	   -4.32214	 66.0	 1	    1.10000	    0.90000;
	39	 1	 0.0	 0.0	 0.0	 0.0	 1	    1.01564	  -11.46678	 220.0	 1	    1.10000	    0.90000;
	40	 1	 0.0	 0.0	 0.0	 0.0	 1	    1.02207	   -9.66507	 132.0	 1	    1.10000	    0.90000;
	41	 1	 0.0	 0.0	 0.0	 0.0	 1	    1.01587	  -11.46018	 220.0	 1	    1.10000	    0.90000;
	42	 2	 0.0	 0.0	 0.0	 0.0	 1	    1.04306	   -8.61338	 11.0	 1	    1.10000	    0.90000;
	43	 2	 0.0	 0.0	 0.0	 0.0	 1	    1.04419	   -7.90811	 11.0	 1	    1.10000	    0.90000;
	44	 1	 8.26	 5.12	 0.0	 0.0	 1	    1.02987	   -4.57337	 66.0	 1	    1.10000	    0.90000;
	45	 1	 4.01	 2.73	 0.0	 0.0	 1	    1.02525	   -4.71690	 33.0	 1	    1.10000	    0.90000;
	46	 1	 0.0	 0.0	 0.0	 0.0	 1	    1.03049	  -10.15185	 220.0	 1	    1.10000	    0.90000;
	47	 1	 0.0	 0.0	 0.0	 0.0	 1	    1.02207	   -9.66508	 132.0	 1	    1.10000	    0.90000;
	48	 1	 0.0	 0.0	 0.0	 0.0	 1	    1.01564	  -11.46679	 220.0	 1	    1.10000	    0.90000;
	49	 1	 7.55	 2.5	 0.0	 0.0	 1	    1.05318	   -9.32495	 132.0	 1	    1.10000	    0.90000;
	50	 2	 0.0	 0.0	 0.0	 0.0	 1	    1.06962	   -6.99674	 11.0	 1	    1.10000	    0.90000;
	51	 2	 0.0	 0.0	 0.0	 0.0	 1	    1.06753	   -9.37816	 11.0	 1	    1.10000	    0.90000;
	52	 2	 0.0	 0.0	 0.0	 0.0	 1	    1.06998	   -5.01134	 11.0	 1	    1.10000	    0.90000;
	53	 2	 0.0	 0.0	 0.0	 0.0	 1	    1.06753	   -9.37816	 11.0	 1	    1.10000	    0.90000;
	54	 1	 6.23	 2.05	 0.0	 0.0	 1	    1.04433	   -4.60657	 66.0	 1	    1.10000	    0.90000;
	55	 1	 0.0	 0.0	 0.0	 0.0	 1	    1.05251	   -9.36352	 132.0	 1	    1.10000	    0.90000;
	56	 1	 0.0	 0.0	 0.0	 0.0	 1	    1.04107	  -10.18163	 132.0	 1	    1.10000	    0.90000;
	57	 1	 0.0	 0.0	 0.0	 0.0	 1	    1.01067	  -12.12561	 220.0	 1	    1.10000	    0.90000;
	58	 1	 0.0	 0.0	 0.0	 0.3	 1	    1.03533	  -10.31295	 132.0	 1	    1.10000	    0.90000;
	59	 1	 0.0	 0.0	 0.0	 0.0	 1	    1.03259	  -10.43071	 132.0	 1	    1.10000	    0.90000;
	60	 1	 200.86	 68.47	 0.0	 0.0	 1	    0.95042	  -19.27311	 21.0	 1	    1.10000	    0.90000;
	61	 1	 0.0	 0.0	 0.0	 0.0	 1	    0.99755	  -13.09256	 220.0	 1	    1.10000	    0.90000;
	62	 1	 0.0	 0.0	 0.0	 0.0	 1	    0.99896	  -12.96421	 220.0	 1	    1.10000	    0.90000;
	63	 1	 110.14	 36.81	 0.0	 0.0	 1	    0.93910	  -21.00517	 33.0	 1	    1.10000	    0.90000;
	64	 1	 0.0	 0.0	 0.0	 0.0	 1	    1.00026	  -12.88270	 220.0	 1	    1.10000	    0.90000;
	65	 1	 50.0	 12.0	 0.0	 0.0	 1	    0.98245	  -16.36519	 33.0	 1	    1.10000	    0.90000;
	66	 1	 0.0	 0.0	 0.0	 0.0	 1	    0.99907	  -13.00478	 220.0	 1	    1.10000	    0.90000;
	67	 1	 80.0	 20.0	 0.0	 0.0	 1	    0.96725	  -18.67561	 33.0	 1	    1.10000	    0.90000;
	68	 1	 56.0	 14.0	 0.0	 0.0	 1	    0.97809	  -16.92703	 33.0	 1	    1.10000	    0.90000;
	69	 1	 0.0	 0.0	 0.0	 0.0	 1	    1.03693	  -10.37490	 132.0	 1	    1.10000	    0.90000;
	70	 1	 34.04	 20.9	 0.0	 0.0	 1	    1.02360	  -11.44702	 33.0	 1	    1.10000	    0.90000;
	71	 1	 0.0	 0.0	 0.0	 0.08	 1	    1.00086	  -12.81116	 220.0	 1	    1.10000	    0.90000;
	72	 1	 0.0	 0.0	 0.0	 0.43	 1	    0.99930	   -9.13744	 132.0	 1	    1.10000	    0.90000;
	73	 1	 0.0	 0.0	 0.0	 0.0	 1	    0.99867	   -9.17723	 132.0	 1	    1.10000	    0.90000;
	74	 1	 17.33	 9.28	 0.0	 0.0	 1	    0.98738	  -10.13032	 11.0	 1	    1.10000	    0.90000;
	75	 1	 0.0	 0.0	 0.0	 0.0	 1	    1.01163	  -11.84391	 220.0	 1	    1.10000	    0.90000;
	76	 1	 0.0	 0.0	 0.0	 0.75	 1	    0.98817	  -16.01566	 220.0	 1	    1.10000	    0.90000;
	77	 1	 0.55	 0.24	 0.0	 0.0	 1	    0.98425	  -15.17271	 132.0	 1	    1.10000	    0.90000;
	78	 1	 7.76	 3.38	 0.0	 0.0	 1	    0.98116	  -15.53622	 66.0	 1	    1.10000	    0.90000;
	79	 1	 0.0	 0.0	 0.0	 0.0	 1	    0.98116	  -15.53622	 11.0	 1	    1.10000	    0.90000;
	80	 1	 125.01	 31.3	 0.0	 0.0	 1	    0.98602	  -16.29694	 220.0	 1	    1.10000	    0.90000;
	81	 1	 379.0	 92.49	 0.0	 0.0	 1	    0.98565	  -16.42130	 220.0	 1	    1.10000	    0.90000;
	82	 1	 0.0	 0.0	 0.0	 0.0	 1	    1.03195	  -10.46754	 132.0	 1	    1.10000	    0.90000;
	83	 1	 25.98	 18.84	 0.0	 0.0	 1	    1.03101	  -10.49570	 11.0	 1	    1.10000	    0.90000;
	84	 1	 0.0	 0.0	 0.0	 0.0	 1	    1.03614	  -10.41371	 132.0	 1	    1.10000	    0.90000;
	85	 1	 15.83	 10.92	 0.0	 0.0	 1	    1.02927	  -10.90639	 11.0	 1	    1.10000	    0.90000;
	86	 1	 0.0	 0.0	 0.0	 0.0	 1	    1.03153	  -10.47953	 132.0	 1	    1.10000	    0.90000;
	87	 1	 8.34	 8.96	 0.0	 0.0	 1	    1.02604	  -10.73587	 11.0	 1	    1.10000	    0.90000;
	88	 1	 0.0	 0.0	 0.0	 0.0	 1	    0.99717	   -9.43630	 132.0	 1	    1.10000	    0.90000;
	89	 1	 15.47	 8.04	 0.0	 0.0	 1	    0.99070	  -10.06553	 11.0	 1	    1.10000	    0.90000;
	90	 1	 0.0	 0.0	 0.0	 0.0	 1	    0.99799	   -9.38289	 132.0	 1	    1.10000	    0.90000;
	91	 1	 8.26	 4.25	 0.0	 0.0	 1	    0.99459	   -9.71736	 11.0	 1	    1.10000	    0.90000;
	92	 1	 0.0	 0.0	 0.0	 0.0	 1	    0.99802	   -9.37724	 132.0	 1	    1.10000	    0.90000;
	93	 1	 15.11	 10.0	 0.0	 0.0	 1	    1.05495	   -1.09647	 132.0	 1	    1.10000	    0.90000;
	94	 1	 0.0	 0.0	 0.0	 0.0	 1	    1.07330	    1.40603	 132.0	 1	    1.10000	    0.90000;
	95	 1	 0.0	 0.0	 0.0	 0.0	 1	    1.07330	    1.40603	 11.0	 1	    1.10000	    0.90000;
	96	 1	 0.0	 0.0	 0.0	 0.0	 1	    1.06892	    0.66793	 132.0	 1	    1.10000	    0.90000;
	97	 1	 0.0	 0.0	 0.0	 0.0	 1	    1.08317	    1.26511	 132.0	 1	    1.10000	    0.90000;
	98	 2	 0.0	 0.0	 0.0	 0.0	 1	    1.10000	    3.07143	 11.0	 1	    1.10000	    0.90000;
	99	 2	 0.0	 0.0	 0.0	 0.0	 1	    1.10000	    1.23844	 11.0	 1	    1.10000	    0.90000;
	100	 1	 0.0	 0.0	 0.0	 0.0	 1	    1.08317	    1.26511	 11.0	 1	    1.10000	    0.90000;
	101	 1	 0.0	 0.0	 0.0	 0.0	 1	    1.08317	    1.26511	 11.0	 1	    1.10000	    0.90000;
	102	 2	 3.78	 1.25	 0.0	 0.0	 1	    1.10000	    8.95683	 11.0	 1	    1.10000	    0.90000;
	103	 1	 0.0	 0.0	 0.0	 0.0	 1	    0.98601	  -14.26048	 132.0	 1	    1.10000	    0.90000;
	104	 2	 22.13	 4.05	 0.0	 0.0	 1	    0.98097	  -16.04077	 66.0	 1	    1.10000	    0.90000;
	105	 1	 5.35	 2.33	 0.0	 0.0	 1	    0.97921	  -16.22390	 19.0	 1	    1.10000	    0.90000;
	106	 1	 0.0	 0.0	 0.0	 0.0	 1	    0.97921	  -16.22390	 0.41	 1	    1.10000	    0.90000;
	107	 1	 0.0	 0.0	 0.0	 0.0	 1	    0.98097	  -16.04077	 11.0	 1	    1.10000	    0.90000;
	108	 1	 0.0	 0.0	 0.0	 0.0	 1	    0.97921	  -16.22390	 11.0	 1	    1.10000	    0.90000;
	109	 1	 0.0	 0.0	 0.0	 0.0	 1	    1.01334	   -9.21457	 132.0	 1	    1.10000	    0.90000;
	110	 1	 1.8	 0.2	 0.0	 0.0	 1	    1.01303	   -9.31302	 19.0	 1	    1.10000	    0.90000;
	111	 1	 0.0	 0.0	 0.0	 0.0	 1	    1.01303	   -9.31302	 0.41	 1	    1.10000	    0.90000;
	112	 1	 0.0	 0.0	 0.0	 0.0	 1	    1.01303	   -9.31302	 11.0	 1	    1.10000	    0.90000;
	113	 1	 0.0	 0.0	 0.0	 0.0	 1	    1.01280	  -10.59008	 132.0	 1	    1.10000	    0.90000;
	114	 1	 3.0	 -1.0	 0.0	 0.0	 1	    1.01356	  -10.74629	 33.0	 1	    1.10000	    0.90000;
	115	 1	 0.0	 0.0	 0.0	 0.0	 1	    1.00630	  -12.56455	 132.0	 1	    1.10000	    0.90000;
	116	 1	 20.0	 2.11	 0.0	 0.0	 1	    1.00445	  -13.80573	 66.0	 1	    1.10000	    0.90000;
	117	 2	 4.0	 1.05	 0.0	 0.0	 1	    1.00769	  -13.57328	 6.3	 1	    1.10000	    0.90000;
	118	 1	 0.0	 0.0	 0.0	 0.0	 1	    1.00647	  -13.65936	 33.0	 1	    1.10000	    0.90000;
	119	 1	 0.0	 0.0	 0.0	 0.0	 1	    1.01300	   -8.12702	 132.0	 1	    1.10000	    0.90000;
	120	 1	 2.57	 1.12	 0.0	 0.0	 1	    1.01177	   -8.26536	 19.0	 1	    1.10000	    0.90000;
	121	 1	 0.0	 0.0	 0.0	 0.0	 1	    1.01177	   -8.26536	 0.41	 1	    1.10000	    0.90000;
	122	 1	 0.0	 0.0	 0.0	 0.0	 1	    1.01177	   -8.26536	 11.0	 1	    1.10000	    0.90000;
	123	 1	 0.0	 0.0	 0.0	 0.0	 1	    1.04880	   -0.08605	 132.0	 1	    1.10000	    0.90000;
	124	 1	 5.0	 0.92	 0.0	 0.0	 1	    1.04739	   -0.42027	 33.0	 1	    1.10000	    0.90000;
	125	 1	 0.0	 0.0	 0.0	 0.0	 1	    1.07180	    3.63182	 132.0	 1	    1.10000	    0.90000;
	126	 2	 0.0	 0.0	 0.0	 0.0	 1	    1.08131	    5.69686	 11.0	 1	    1.10000	    0.90000;
	127	 2	 0.0	 0.0	 0.0	 0.0	 1	    1.08396	    7.44470	 11.0	 1	    1.10000	    0.90000;
	128	 1	 0.0	 0.0	 0.0	 0.0	 1	    1.08131	    5.69686	 11.0	 1	    1.10000	    0.90000;
	129	 1	 0.0	 0.0	 0.0	 0.0	 1	    1.08396	    7.44470	 11.0	 1	    1.10000	    0.90000;
	130	 1	 0.0	 0.0	 0.0	 0.0	 1	    1.06537	    2.94403	 132.0	 1	    1.10000	    0.90000;
	131	 1	 9.0	 1.47	 0.0	 0.0	 1	    1.06290	    2.29562	 66.0	 1	    1.10000	    0.90000;
	132	 1	 0.0	 0.0	 0.0	 0.0	 1	    1.04444	    2.07370	 132.0	 1	    1.10000	    0.90000;
	133	 1	 13.0	 1.0	 0.0	 0.0	 1	    1.03983	    1.79195	 66.0	 1	    1.10000	    0.90000;
	134	 1	 4.08	 1.78	 0.0	 0.0	 1	    1.03813	    1.62626	 11.0	 1	    1.10000	    0.90000;
	135	 1	 0.0	 0.0	 0.0	 0.0	 1	    1.03813	    1.62626	 0.41	 1	    1.10000	    0.90000;
	136	 1	 0.0	 0.0	 0.0	 0.0	 1	    1.03813	    1.62626	 11.0	 1	    1.10000	    0.90000;
	137	 1	 0.0	 0.0	 0.0	 0.0	 1	    1.02961	    1.65498	 132.0	 1	    1.10000	    0.90000;
	138	 2	 0.0	 0.0	 0.0	 0.0	 1	    1.00754	    3.64190	 11.0	 1	    1.10000	    0.90000;
	139	 2	 2.27	 0.99	 0.0	 0.0	 1	    1.00636	    3.02516	 11.0	 1	    1.10000	    0.90000;
	140	 1	 0.0	 0.0	 0.0	 0.0	 1	    1.00694	    3.33371	 0.41	 1	    1.10000	    0.90000;
	141	 1	 0.0	 0.0	 0.0	 0.0	 1	    1.00678	    3.26936	 11.0	 1	    1.10000	    0.90000;
	142	 2	 0.0	 0.0	 0.0	 0.0	 1	    1.00678	    3.26976	 11.0	 1	    1.10000	    0.90000;
	143	 1	 8.08	 0.5	 0.0	 0.0	 1	    1.07706	    5.56268	 66.0	 1	    1.10000	    0.90000;
	144	 2	 0.0	 0.0	 0.0	 0.0	 1	    1.07808	    6.45289	 11.0	 1	    1.10000	    0.90000;
	145	 1	 0.0	 0.0	 0.0	 0.0	 1	    1.07706	    5.56268	 33.0	 1	    1.10000	    0.90000;
	146	 1	 0.0	 0.0	 0.0	 0.0	 1	    1.07748	    5.95734	 6.6	 1	    1.10000	    0.90000;
	147	 1	 0.0	 0.0	 0.0	 0.0	 1	    1.07706	    5.56802	 11.0	 1	    1.10000	    0.90000;
	148	 1	 0.0	 0.0	 0.0	 0.0	 1	    1.07779	    6.22486	 0.38	 1	    1.10000	    0.90000;
	149	 1	 0.0	 0.0	 0.0	 0.0	 1	    1.07707	    5.57057	 0.22	 1	    1.10000	    0.90000;
	150	 1	 0.0	 0.0	 0.0	 0.0	 1	    1.07752	    5.99545	 0.38	 1	    1.10000	    0.90000;
	151	 1	 0.0	 0.0	 0.0	 0.0	 1	    1.07752	    5.99545	 0.22	 1	    1.10000	    0.90000;
	152	 1	 0.0	 0.0	 0.0	 0.0	 1	    1.07752	    5.99672	 6.6	 1	    1.10000	    0.90000;
	153	 1	 0.0	 0.0	 0.0	 0.0	 1	    1.07752	    5.99545	 6.6	 1	    1.10000	    0.90000;
	154	 1	 0.0	 0.0	 0.0	 0.0	 1	    1.07752	    5.99672	 0.22	 1	    1.10000	    0.90000;
	155	 1	 0.01	 0.01	 0.0	 0.0	 1	    1.08117	   -7.38340	 132.0	 1	    1.10000	    0.90000;
	156	 1	 17.38	 4.4	 0.0	 0.0	 1	    1.07301	   -8.56005	 66.0	 1	    1.10000	    0.90000;
	157	 1	 0.0	 0.0	 0.0	 0.0	 1	    1.07906	   -7.53168	 132.0	 1	    1.10000	    0.90000;
	158	 1	 0.0	 0.0	 0.0	 0.0	 1	    1.07678	   -7.83424	 132.0	 1	    1.10000	    0.90000;
	159	 1	 10.14	 2.7	 0.0	 0.0	 1	    1.07188	   -8.61817	 66.0	 1	    1.10000	    0.90000;
	160	 1	 0.0	 0.0	 0.0	 0.0	 1	    1.07188	   -8.61817	 11.0	 1	    1.10000	    0.90000;
	161	 1	 0.0	 0.0	 0.0	 0.0	 1	    1.09032	   -7.73770	 132.0	 1	    1.10000	    0.90000;
	162	 1	 2.87	 0.4	 0.0	 0.0	 1	    1.08938	   -7.96770	 11.0	 1	    1.10000	    0.90000;
	163	 1	 0.0	 0.0	 0.0	 0.0	 1	    1.08975	   -7.88575	 33.0	 1	    1.10000	    0.90000;
	164	 1	 0.0	 0.0	 0.0	 0.0	 1	    1.08938	   -7.96770	 0.41	 1	    1.10000	    0.90000;
	165	 1	 0.0	 0.0	 0.0	 0.0	 1	    1.08975	   -7.88575	 11.0	 1	    1.10000	    0.90000;
	166	 1	 0.0	 0.0	 0.0	 0.0	 1	    1.10000	   -7.95803	 132.0	 1	    1.10000	    0.90000;
	167	 1	 7.26	 0.4	 0.0	 0.0	 1	    1.09929	   -8.32766	 11.0	 1	    1.10000	    0.90000;
	168	 1	 0.0	 0.0	 0.0	 0.0	 1	    1.09929	   -8.32766	 0.41	 1	    1.10000	    0.90000;
	169	 1	 0.0	 0.0	 0.0	 0.0	 1	    1.09929	   -8.32766	 11.0	 1	    1.10000	    0.90000;
	170	 1	 0.0	 0.0	 0.0	 0.0	 1	    1.08400	   -9.13025	 132.0	 1	    1.10000	    0.90000;
	171	 1	 0.0	 0.0	 0.0	 0.0	 1	    1.09929	   -8.32766	 19.0	 1	    1.10000	    0.90000;
	172	 1	 0.0	 0.0	 0.0	 0.0	 1	    1.08672	   -7.92019	 132.0	 1	    1.10000	    0.90000;
	173	 1	 1.73	 0.2	 0.0	 0.0	 1	    1.08650	   -7.98598	 19.0	 1	    1.10000	    0.90000;
	174	 1	 0.0	 0.0	 0.0	 0.0	 1	    1.08650	   -7.98598	 0.41	 1	    1.10000	    0.90000;
	175	 1	 0.0	 0.0	 0.0	 0.0	 1	    1.08650	   -7.98598	 11.0	 1	    1.10000	    0.90000;
	176	 1	 0.0	 0.0	 0.0	 0.0	 1	    1.07643	   -6.38598	 132.0	 1	    1.10000	    0.90000;
	177	 1	 0.0	 0.0	 0.0	 0.0	 1	    1.07982	   -7.00820	 220.0	 1	    1.10000	    0.90000;
	178	 1	 5.2	 3.0	 0.0	 0.0	 1	    1.07557	   -7.48655	 11.0	 1	    1.10000	    0.90000;
	179	 1	 0.0	 0.0	 0.0	 0.0	 1	    1.07918	   -7.18593	 69.0	 1	    1.10000	    0.90000;
	180	 1	 0.0	 0.0	 0.0	 0.0	 1	    1.07918	   -7.18593	 69.0	 1	    1.10000	    0.90000;
	181	 1	 0.0	 0.0	 0.0	 0.0	 1	    1.07918	   -7.18593	 69.0	 1	    1.10000	    0.90000;
	182	 1	 0.0	 0.0	 0.0	 0.0	 1	    1.07918	   -7.18593	 69.0	 1	    1.10000	    0.90000;
	183	 1	 0.0	 0.0	 0.0	 0.0	 1	    1.07918	   -7.18593	 69.0	 1	    1.10000	    0.90000;
	184	 1	 5.21	 3.0	 0.0	 0.0	 1	    1.07557	   -7.48740	 11.0	 1	    1.10000	    0.90000;
	185	 1	 9.67	 1.6	 0.0	 0.0	 1	    1.05414	   -9.34196	 66.0	 1	    1.10000	    0.90000;
	186	 2	 0.0	 0.0	 0.0	 0.0	 1	    1.05431	   -9.16101	 6.6	 1	    1.10000	    0.90000;
	187	 1	 0.0	 0.0	 0.0	 0.0	 1	    1.05414	   -9.34196	 11.0	 1	    1.10000	    0.90000;
	188	 1	 0.0	 0.0	 0.0	 0.0	 1	    1.07918	   -7.18593	 220.0	 1	    1.10000	    0.90000;
	189	 1	 0.0	 0.0	 0.0	 0.0	 1	    1.07917	   -7.18619	 220.0	 1	    1.10000	    0.90000;
];

%% generator data
%	bus	Pg	Qg	Qmax	Qmin	Vg	mBase	status	Pmax	Pmin	Pc1	Pc2	Qc1min	Qc1max	Qc2min	Qc2max	ramp_agc	ramp_10	ramp_30	ramp_q	apf
mpc.gen = [
	10	 105.844	 30.701	 38.0	 -20.0	 1.1	 69.3	 1	 228.0	 0.0	 0.0	 0.0	 0.0	 0.0	 0.0	 0.0	 0.0	 0.0	 0.0	 0.0	 0.0;
	2	 115.0	 34.0	 34.0	 -20.0	 1.0838	 106.6	 1	 115.0	 0.0	 0.0	 0.0	 0.0	 0.0	 0.0	 0.0	 0.0	 0.0	 0.0	 0.0	 0.0;
	3	 95.0	 34.0	 34.0	 -20.0	 1.08241	 106.6	 1	 95.0	 0.0	 0.0	 0.0	 0.0	 0.0	 0.0	 0.0	 0.0	 0.0	 0.0	 0.0	 0.0;
	4	 0.0	 17.0	 17.0	 -10.0	 1.06711	 53.3	 1	 128.0	 0.0	 0.0	 0.0	 0.0	 0.0	 0.0	 0.0	 0.0	 0.0	 0.0	 0.0	 0.0;
	8	 30.0	 15.0	 15.0	 -15.0	 1.0858	 69.3	 1	 30.0	 0.0	 0.0	 0.0	 0.0	 0.0	 0.0	 0.0	 0.0	 0.0	 0.0	 0.0	 0.0;
	9	 32.0	 16.0	 16.0	 -16.0	 1.08696	 69.3	 1	 32.0	 0.0	 0.0	 0.0	 0.0	 0.0	 0.0	 0.0	 0.0	 0.0	 0.0	 0.0	 0.0;
	13	 110.117	 30.274	 42.0	 -20.0	 1.1	 81.5	 1	 236.0	 0.0	 0.0	 0.0	 0.0	 0.0	 0.0	 0.0	 0.0	 0.0	 0.0	 0.0	 0.0;
	14	 38.035	 25.621	 42.0	 -20.0	 1.1	 81.5	 1	 164.0	 0.0	 0.0	 0.0	 0.0	 0.0	 0.0	 0.0	 0.0	 0.0	 0.0	 0.0	 0.0;
	16	 0.0	 17.0	 17.0	 -10.0	 1.08844	 53.3	 1	 164.0	 0.0	 0.0	 0.0	 0.0	 0.0	 0.0	 0.0	 0.0	 0.0	 0.0	 0.0	 0.0;
	18	 0.0	 42.0	 42.0	 -20.0	 1.09861	 66.67	 1	 151.0	 0.0	 0.0	 0.0	 0.0	 0.0	 0.0	 0.0	 0.0	 0.0	 0.0	 0.0	 0.0;
	19	 124.0	 42.0	 42.0	 -20.0	 1.09619	 66.67	 1	 124.0	 0.0	 0.0	 0.0	 0.0	 0.0	 0.0	 0.0	 0.0	 0.0	 0.0	 0.0	 0.0;
	27	 2.562	 11.6	 11.6	 -5.0	 1.05646	 19.4	 1	 46.0	 0.0	 0.0	 0.0	 0.0	 0.0	 0.0	 0.0	 0.0	 0.0	 0.0	 0.0	 0.0;
	28	 35.508	 11.6	 11.6	 -5.0	 1.05839	 19.4	 1	 63.0	 0.0	 0.0	 0.0	 0.0	 0.0	 0.0	 0.0	 0.0	 0.0	 0.0	 0.0	 0.0;
	29	 13.0	 7.0	 7.0	 -5.0	 1.05142	 21.0	 1	 13.0	 0.0	 0.0	 0.0	 0.0	 0.0	 0.0	 0.0	 0.0	 0.0	 0.0	 0.0	 0.0;
	32	 11.0	 6.0	 6.0	 -5.0	 1.06892	 16.5	 1	 11.0	 0.0	 0.0	 0.0	 0.0	 0.0	 0.0	 0.0	 0.0	 0.0	 0.0	 0.0	 0.0;
	33	 9.261	 9.9	 9.9	 -5.0	 1.07318	 16.5	 1	 20.0	 0.0	 0.0	 0.0	 0.0	 0.0	 0.0	 0.0	 0.0	 0.0	 0.0	 0.0	 0.0;
	36	 52.0	 3.3	 3.3	 -2.0	 1.05228	 18.2	 1	 52.0	 0.0	 0.0	 0.0	 0.0	 0.0	 0.0	 0.0	 0.0	 0.0	 0.0	 0.0	 0.0;
	42	 42.0	 21.0	 21.0	 -20.0	 1.04306	 55.0	 1	 42.0	 0.0	 0.0	 0.0	 0.0	 0.0	 0.0	 0.0	 0.0	 0.0	 0.0	 0.0	 0.0;
	43	 52.24	 22.0	 22.0	 -20.0	 1.04419	 55.0	 1	 166.0	 0.0	 0.0	 0.0	 0.0	 0.0	 0.0	 0.0	 0.0	 0.0	 0.0	 0.0	 0.0;
	50	 61.097	 20.0	 20.0	 -20.0	 1.06962	 40.0	 1	 72.0	 0.0	 0.0	 0.0	 0.0	 0.0	 0.0	 0.0	 0.0	 0.0	 0.0	 0.0	 0.0;
	51	 0.0	 20.0	 20.0	 -20.0	 1.06753	 40.0	 1	 88.0	 0.0	 0.0	 0.0	 0.0	 0.0	 0.0	 0.0	 0.0	 0.0	 0.0	 0.0	 0.0;
	52	 112.0	 20.0	 20.0	 -20.0	 1.06998	 40.0	 1	 112.0	 0.0	 0.0	 0.0	 0.0	 0.0	 0.0	 0.0	 0.0	 0.0	 0.0	 0.0	 0.0;
	53	 0.0	 20.0	 20.0	 -20.0	 1.06753	 40.0	 1	 111.0	 0.0	 0.0	 0.0	 0.0	 0.0	 0.0	 0.0	 0.0	 0.0	 0.0	 0.0	 0.0;
	98	 40.466	 19.085	 23.0	 -16.0	 1.1	 55.0	 1	 121.0	 0.0	 0.0	 0.0	 0.0	 0.0	 0.0	 0.0	 0.0	 0.0	 0.0	 0.0	 0.0;
	99	 0.0	 19.668	 23.0	 -16.0	 1.1	 55.0	 1	 65.0	 0.0	 0.0	 0.0	 0.0	 0.0	 0.0	 0.0	 0.0	 0.0	 0.0	 0.0	 0.0;
	102	 134.412	 27.565	 30.0	 -26.0	 1.1	 67.5	 1	 218.0	 0.0	 0.0	 0.0	 0.0	 0.0	 0.0	 0.0	 0.0	 0.0	 0.0	 0.0	 0.0;
	104	 1.259	 3.3	 3.3	 -3.3	 0.98097	 10.0	 1	 11.0	 0.0	 0.0	 0.0	 0.0	 0.0	 0.0	 0.0	 0.0	 0.0	 0.0	 0.0	 0.0;
	117	 6.0	 2.5	 2.5	 0.0	 1.00769	 20.2	 1	 6.0	 0.0	 0.0	 0.0	 0.0	 0.0	 0.0	 0.0	 0.0	 0.0	 0.0	 0.0	 0.0;
	126	 40.0	 9.377	 20.0	 -12.0	 1.08131	 60.0	 1	 40.0	 0.0	 0.0	 0.0	 0.0	 0.0	 0.0	 0.0	 0.0	 0.0	 0.0	 0.0	 0.0;
	127	 73.872	 12.903	 22.0	 -12.0	 1.08396	 60.0	 1	 101.0	 0.0	 0.0	 0.0	 0.0	 0.0	 0.0	 0.0	 0.0	 0.0	 0.0	 0.0	 0.0;
	138	 37.619	 -16.0	 18.7	 -16.0	 1.00754	 37.5	 1	 58.0	 0.0	 0.0	 0.0	 0.0	 0.0	 0.0	 0.0	 0.0	 0.0	 0.0	 0.0	 0.0;
	139	 0.0	 -16.0	 18.7	 -16.0	 1.00636	 37.5	 1	 95.0	 0.0	 0.0	 0.0	 0.0	 0.0	 0.0	 0.0	 0.0	 0.0	 0.0	 0.0	 0.0;
	142	 7.0	 0.0	 1.3	 0.0	 1.00678	 3.5	 1	 7.0	 0.0	 0.0	 0.0	 0.0	 0.0	 0.0	 0.0	 0.0	 0.0	 0.0	 0.0	 0.0;
	144	 21.0	 0.0	 11.0	 0.0	 1.07808	 28.0	 1	 21.0	 0.0	 0.0	 0.0	 0.0	 0.0	 0.0	 0.0	 0.0	 0.0	 0.0	 0.0	 0.0;
	186	 6.0	 0.0	 3.0	 0.0	 1.05431	 10.0	 1	 6.0	 0.0	 0.0	 0.0	 0.0	 0.0	 0.0	 0.0	 0.0	 0.0	 0.0	 0.0	 0.0;
];

%% generator cost data
%	2	startup	shutdown	n	c(n-1)	...	c0
mpc.gencost = [
	2	 0.0	 0.0	 3	   0.000000	   0.950261	   0.000000;
	2	 0.0	 0.0	 3	   0.000000	   0.410910	   0.000000;
	2	 0.0	 0.0	 3	   0.000000	   0.193324	   0.000000;
	2	 0.0	 0.0	 3	   0.000000	   1.082710	   0.000000;
	2	 0.0	 0.0	 3	   0.000000	   0.187727	   0.000000;
	2	 0.0	 0.0	 3	   0.000000	   0.685695	   0.000000;
	2	 0.0	 0.0	 3	   0.000000	   0.908043	   0.000000;
	2	 0.0	 0.0	 3	   0.000000	   0.975515	   0.000000;
	2	 0.0	 0.0	 3	   0.000000	   1.031722	   0.000000;
	2	 0.0	 0.0	 3	   0.000000	   1.078768	   0.000000;
	2	 0.0	 0.0	 3	   0.000000	   0.363147	   0.000000;
	2	 0.0	 0.0	 3	   0.000000	   1.033987	   0.000000;
	2	 0.0	 0.0	 3	   0.000000	   0.994267	   0.000000;
	2	 0.0	 0.0	 3	   0.000000	   0.200299	   0.000000;
	2	 0.0	 0.0	 3	   0.000000	   0.625656	   0.000000;
	2	 0.0	 0.0	 3	   0.000000	   0.947925	   0.000000;
	2	 0.0	 0.0	 3	   0.000000	   0.523605	   0.000000;
	2	 0.0	 0.0	 3	   0.000000	   0.194502	   0.000000;
	2	 0.0	 0.0	 3	   0.000000	   1.050080	   0.000000;
	2	 0.0	 0.0	 3	   0.000000	   0.959580	   0.000000;
	2	 0.0	 0.0	 3	   0.000000	   1.036212	   0.000000;
	2	 0.0	 0.0	 3	   0.000000	   0.812749	   0.000000;
	2	 0.0	 0.0	 3	   0.000000	   1.160191	   0.000000;
	2	 0.0	 0.0	 3	   0.000000	   0.607646	   0.000000;
	2	 0.0	 0.0	 3	   0.000000	   1.043813	   0.000000;
	2	 0.0	 0.0	 3	   0.000000	   0.583193	   0.000000;
	2	 0.0	 0.0	 3	   0.000000	   1.204295	   0.000000;
	2	 0.0	 0.0	 3	   0.000000	   0.207683	   0.000000;
	2	 0.0	 0.0	 3	   0.000000	   0.255753	   0.000000;
	2	 0.0	 0.0	 3	   0.000000	   0.655194	   0.000000;
	2	 0.0	 0.0	 3	   0.000000	   0.529207	   0.000000;
	2	 0.0	 0.0	 3	   0.000000	   0.810865	   0.000000;
	2	 0.0	 0.0	 3	   0.000000	   0.474352	   0.000000;
	2	 0.0	 0.0	 3	   0.000000	   0.197888	   0.000000;
	2	 0.0	 0.0	 3	   0.000000	   0.173390	   0.000000;
];

%% branch data
%	fbus	tbus	r	x	b	rateA	rateB	rateC	ratio	angle	status	angmin	angmax
mpc.branch = [
	1	 7	 0.0055	 0.0334	 0.04711	 321.0	 321.0	 321.0	 1.0	 0.0	 1	 -8.040965	 8.040965;
	1	 17	 0.00059	 0.00818	 0.02064	 476.0	 476.0	 476.0	 1.0	 0.0	 1	 -8.040965	 8.040965;
	1	 21	 0.00138	 0.00908	 0.0128	 334.0	 334.0	 334.0	 1.0	 0.0	 1	 -8.040965	 8.040965;
	1	 46	 0.0075	 0.04531	 0.06412	 321.0	 321.0	 321.0	 1.0	 0.0	 1	 -8.040965	 8.040965;
	1	 71	 0.00607	 0.08107	 0.20636	 389.0	 389.0	 389.0	 1.0	 0.0	 1	 -8.040965	 8.040965;
	5	 6	 0.0	 0.0001	 0.0	 9900.0	 9900.0	 9900.0	 1.0	 0.0	 1	 -8.040965	 8.040965;
	5	 23	 0.1134	 0.2371	 0.0034	 58.0	 58.0	 58.0	 1.0	 0.0	 1	 -8.040965	 8.040965;
	6	 22	 0.1892	 0.4045	 0.0057	 59.0	 59.0	 59.0	 1.0	 0.0	 1	 -8.040965	 8.040965;
	7	 12	 0.0008	 0.00758	 0.0122	 397.0	 397.0	 397.0	 1.0	 0.0	 1	 -8.040965	 8.040965;
	7	 15	 0.00118	 0.00525	 0.00734	 277.0	 277.0	 277.0	 1.0	 0.0	 1	 -8.040965	 8.040965;
	11	 172	 0.0414	 0.186	 0.03803	 166.0	 166.0	 166.0	 1.0	 0.0	 1	 -8.040965	 8.040965;
	12	 17	 0.00186	 0.01775	 0.02631	 399.0	 399.0	 399.0	 1.0	 0.0	 1	 -8.040965	 8.040965;
	17	 20	 0.0015	 0.01421	 0.02098	 397.0	 397.0	 397.0	 1.0	 0.0	 1	 -8.040965	 8.040965;
	17	 76	 0.01123	 0.10655	 0.15787	 295.0	 295.0	 295.0	 1.0	 0.0	 1	 -8.040965	 8.040965;
	17	 76	 0.00673	 0.0629	 0.22871	 395.0	 395.0	 395.0	 1.0	 0.0	 1	 -8.040965	 8.040965;
	21	 25	 0.00702	 0.04602	 0.06492	 333.0	 333.0	 333.0	 1.0	 0.0	 1	 -8.040965	 8.040965;
	22	 24	 0.09229	 0.11961	 0.00156	 47.0	 47.0	 47.0	 1.0	 0.0	 1	 -8.040965	 8.040965;
	23	 24	 0.12833	 0.28719	 0.00422	 60.0	 60.0	 60.0	 1.0	 0.0	 1	 -8.040965	 8.040965;
	24	 44	 0.1	 0.15	 0.002	 50.0	 50.0	 50.0	 1.0	 0.0	 1	 -8.040965	 8.040965;
	25	 57	 0.005	 0.0328	 0.0456	 333.0	 333.0	 333.0	 1.0	 0.0	 1	 -8.040965	 8.040965;
	26	 40	 0.02416	 0.06049	 0.01107	 127.0	 127.0	 127.0	 1.0	 0.0	 1	 -8.040965	 8.040965;
	30	 35	 0.006	 0.015	 0.0	 64.0	 64.0	 64.0	 1.0	 0.0	 1	 -8.040965	 8.040965;
	31	 35	 0.0239	 0.0599	 0.0007	 64.0	 64.0	 64.0	 1.0	 0.0	 1	 -8.040965	 8.040965;
	35	 38	 0.0	 0.0001	 0.0	 9900.0	 9900.0	 9900.0	 1.0	 0.0	 1	 -8.040965	 8.040965;
	35	 44	 0.0615	 0.1591	 0.0024	 65.0	 65.0	 65.0	 1.0	 0.0	 1	 -8.040965	 8.040965;
	35	 54	 0.0399	 0.1001	 0.0011	 64.0	 64.0	 64.0	 1.0	 0.0	 1	 -8.040965	 8.040965;
	39	 41	 0.00023	 0.00222	 0.00329	 401.0	 401.0	 401.0	 1.0	 0.0	 1	 -8.040965	 8.040965;
	39	 48	 0.00019	 0.00178	 0.00263	 395.0	 395.0	 395.0	 1.0	 0.0	 1	 -8.040965	 8.040965;
	39	 57	 0.00187	 0.01776	 0.02631	 398.0	 398.0	 398.0	 1.0	 0.0	 1	 -8.040965	 8.040965;
	40	 47	 0.00055	 0.00324	 0.00018	 190.0	 190.0	 190.0	 1.0	 0.0	 1	 -8.040965	 8.040965;
	41	 46	 0.0054	 0.03262	 0.04616	 321.0	 321.0	 321.0	 1.0	 0.0	 1	 -8.040965	 8.040965;
	41	 57	 0.00255	 0.01541	 0.0218	 321.0	 321.0	 321.0	 1.0	 0.0	 1	 -8.040965	 8.040965;
	41	 75	 0.0009	 0.00852	 0.01259	 397.0	 397.0	 397.0	 1.0	 0.0	 1	 -8.040965	 8.040965;
	49	 55	 0.00068	 0.00191	 0.02173	 134.0	 134.0	 134.0	 1.0	 0.0	 1	 -8.040965	 8.040965;
	49	 58	 0.00677	 0.01915	 0.19623	 134.0	 134.0	 134.0	 1.0	 0.0	 1	 -8.040965	 8.040965;
	55	 56	 0.0083	 0.03772	 0.00758	 168.0	 168.0	 168.0	 1.0	 0.0	 1	 -8.040965	 8.040965;
	56	 69	 0.00352	 0.00996	 0.10204	 134.0	 134.0	 134.0	 1.0	 0.0	 1	 -8.040965	 8.040965;
	57	 71	 0.00208	 0.01308	 0.01975	 327.0	 327.0	 327.0	 1.0	 0.0	 1	 -8.040965	 8.040965;
	57	 71	 0.00208	 0.01308	 0.01975	 327.0	 327.0	 327.0	 1.0	 0.0	 1	 -8.040965	 8.040965;
	57	 76	 0.0088	 0.0534	 0.076	 321.0	 321.0	 321.0	 1.0	 0.0	 1	 -8.040965	 8.040965;
	58	 59	 0.0038	 0.0084	 0.0219	 119.0	 119.0	 119.0	 1.0	 0.0	 1	 -8.040965	 8.040965;
	58	 69	 0.0046	 0.017	 0.0033	 152.0	 152.0	 152.0	 1.0	 0.0	 1	 -8.040965	 8.040965;
	59	 82	 0.0005	 0.0023	 0.0325	 169.0	 169.0	 169.0	 1.0	 0.0	 1	 -8.040965	 8.040965;
	61	 71	 0.00041	 0.00262	 0.0046	 329.0	 329.0	 329.0	 1.0	 0.0	 1	 -8.040965	 8.040965;
	62	 71	 0.00041	 0.00262	 0.0046	 329.0	 329.0	 329.0	 1.0	 0.0	 1	 -8.040965	 8.040965;
	64	 71	 0.00041	 0.00262	 0.0046	 329.0	 329.0	 329.0	 1.0	 0.0	 1	 -8.040965	 8.040965;
	66	 71	 0.00041	 0.00262	 0.0046	 329.0	 329.0	 329.0	 1.0	 0.0	 1	 -8.040965	 8.040965;
	69	 84	 0.0032	 0.0057	 0.1054	 108.0	 108.0	 108.0	 1.0	 0.0	 1	 -8.040965	 8.040965;
	71	 75	 0.0022	 0.0212	 0.0321	 400.0	 400.0	 400.0	 1.0	 0.0	 1	 -8.040965	 8.040965;
	72	 73	 0.0011	 0.0046	 0.001	 162.0	 162.0	 162.0	 1.0	 0.0	 1	 -8.040965	 8.040965;
	72	 92	 0.00465	 0.01776	 0.00547	 155.0	 155.0	 155.0	 1.0	 0.0	 1	 -8.040965	 8.040965;
	72	 93	 0.0253	 0.101	 0.0219	 158.0	 158.0	 158.0	 1.0	 0.0	 1	 -8.040965	 8.040965;
	76	 80	 0.0007	 0.004	 0.0061	 312.0	 312.0	 312.0	 1.0	 0.0	 1	 -8.040965	 8.040965;
	76	 81	 0.0004	 0.00377	 0.00557	 396.0	 396.0	 396.0	 1.0	 0.0	 1	 -8.040965	 8.040965;
	76	 81	 0.00039	 0.0037	 0.00547	 397.0	 397.0	 397.0	 1.0	 0.0	 1	 -8.040965	 8.040965;
	77	 103	 0.0106	 0.0476	 0.00985	 167.0	 167.0	 167.0	 1.0	 0.0	 1	 -8.040965	 8.040965;
	82	 86	 0.00196	 0.00418	 0.04905	 117.0	 117.0	 117.0	 1.0	 0.0	 1	 -8.040965	 8.040965;
	88	 90	 0.00402	 0.00674	 0.10825	 105.0	 105.0	 105.0	 1.0	 0.0	 1	 -8.040965	 8.040965;
	90	 92	 0.0001	 0.00042	 0.00591	 162.0	 162.0	 162.0	 1.0	 0.0	 1	 -8.040965	 8.040965;
	93	 96	 0.00354	 0.0214	 0.00392	 193.0	 193.0	 193.0	 1.0	 0.0	 1	 -8.040965	 8.040965;
	94	 96	 0.0029	 0.01159	 0.00251	 158.0	 158.0	 158.0	 1.0	 0.0	 1	 -8.040965	 8.040965;
	96	 97	 0.00583	 0.03524	 0.00646	 193.0	 193.0	 193.0	 1.0	 0.0	 1	 -8.040965	 8.040965;
	103	 119	 0.0409	 0.1829	 0.03775	 167.0	 167.0	 167.0	 1.0	 0.0	 1	 -8.040965	 8.040965;
	109	 113	 0.0248	 0.1112	 0.0227	 167.0	 167.0	 167.0	 1.0	 0.0	 1	 -8.040965	 8.040965;
	109	 119	 0.0178	 0.08	 0.01636	 167.0	 167.0	 167.0	 1.0	 0.0	 1	 -8.040965	 8.040965;
	113	 115	 0.0429	 0.1927	 0.03945	 161.0	 161.0	 161.0	 1.0	 0.0	 1	 -8.040965	 8.040965;
	119	 123	 0.0385	 0.1727	 0.0356	 167.0	 167.0	 167.0	 1.0	 0.0	 1	 -8.040965	 8.040965;
	123	 125	 0.018	 0.0797	 0.0159	 166.0	 166.0	 166.0	 1.0	 0.0	 1	 -8.040965	 8.040965;
	125	 130	 0.0169	 0.075	 0.0153	 166.0	 166.0	 166.0	 1.0	 0.0	 1	 -8.040965	 8.040965;
	130	 132	 0.0839	 0.2156	 0.0427	 128.0	 128.0	 128.0	 1.0	 0.0	 1	 -8.040965	 8.040965;
	132	 137	 0.0435	 0.1952	 0.04	 158.0	 158.0	 158.0	 1.0	 0.0	 1	 -8.040965	 8.040965;
	133	 143	 0.35284	 0.5564	 0.005	 48.0	 48.0	 48.0	 1.0	 0.0	 1	 -8.040965	 8.040965;
	137	 176	 0.06485	 0.29293	 0.06014	 106.0	 106.0	 106.0	 1.0	 0.0	 1	 -8.040965	 8.040965;
	141	 142	 0.0	 0.0001	 0.0	 9900.0	 9900.0	 9900.0	 1.0	 0.0	 1	 -8.040965	 8.040965;
	155	 157	 0.01419	 0.01638	 0.10193	 88.0	 88.0	 88.0	 1.0	 0.0	 1	 -8.040965	 8.040965;
	155	 158	 0.01663	 0.07017	 0.01485	 162.0	 162.0	 162.0	 1.0	 0.0	 1	 -8.040965	 8.040965;
	155	 161	 0.0264	 0.11823	 0.0242	 167.0	 167.0	 167.0	 1.0	 0.0	 1	 -8.040965	 8.040965;
	155	 176	 0.01322	 0.04968	 0.08516	 154.0	 154.0	 154.0	 1.0	 0.0	 1	 -8.040965	 8.040965;
	159	 185	 0.30532	 0.5096	 0.003	 52.0	 52.0	 52.0	 1.0	 0.0	 1	 -8.040965	 8.040965;
	161	 166	 0.0399	 0.1791	 0.0367	 167.0	 167.0	 167.0	 1.0	 0.0	 1	 -8.040965	 8.040965;
	166	 170	 0.0	 -0.40174	 0.0	 79.0	 79.0	 79.0	 1.0	 0.0	 1	 -8.040965	 8.040965;
	170	 172	 0.0883	 0.4	 0.0838	 78.0	 78.0	 78.0	 1.0	 0.0	 1	 -8.040965	 8.040965;
	177	 188	 0.00219	 0.03499	 0.0818	 510.0	 510.0	 510.0	 1.0	 0.0	 1	 -8.040965	 8.040965;
	188	 189	 0.0	 0.0001	 0.0	 9900.0	 9900.0	 9900.0	 1.0	 0.0	 1	 -8.040965	 8.040965;
	1	 2	 0.00481	 0.14783	 0.0	 214.0	 214.0	 214.0	 1.0	 0.0	 1	 -8.040965	 8.040965;
	1	 3	 0.00481	 0.14783	 0.0	 214.0	 214.0	 214.0	 1.0	 0.0	 1	 -8.040965	 8.040965;
	1	 4	 0.00292	 0.113	 0.0	 280.0	 280.0	 280.0	 1.0	 0.0	 1	 -8.040965	 8.040965;
	5	 2	 0.01616	 0.101	 0.0	 309.0	 309.0	 309.0	 1.0	 0.0	 1	 -8.040965	 8.040965;
	6	 3	 0.01616	 0.101	 0.0	 309.0	 309.0	 309.0	 1.0	 0.0	 1	 -8.040965	 8.040965;
	7	 8	 0.00373	 0.129	 0.0	 245.0	 245.0	 245.0	 1.0	 0.0	 1	 -8.040965	 8.040965;
	7	 9	 0.00373	 0.129	 0.0	 245.0	 245.0	 245.0	 1.0	 0.0	 1	 -8.040965	 8.040965;
	7	 10	 0.00373	 0.129	 0.0	 245.0	 245.0	 245.0	 1.0	 0.0	 1	 -8.040965	 8.040965;
	7	 11	 0.002	 0.1081	 0.0	 293.0	 293.0	 293.0	 1.0	 0.0	 1	 -8.040965	 8.040965;
	12	 13	 0.00444	 0.15	 0.0	 211.0	 211.0	 211.0	 1.0	 0.0	 1	 -8.040965	 8.040965;
	12	 14	 0.00444	 0.15	 0.0	 211.0	 211.0	 211.0	 1.0	 0.0	 1	 -8.040965	 8.040965;
	15	 16	 0.0064	 0.1285	 0.0	 246.0	 246.0	 246.0	 1.0	 0.0	 1	 -8.040965	 8.040965;
	17	 18	 0.00637	 0.12825	 0.0	 246.0	 246.0	 246.0	 1.0	 0.0	 1	 -8.040965	 8.040965;
	17	 19	 0.00637	 0.12825	 0.0	 246.0	 246.0	 246.0	 1.0	 0.0	 1	 -8.040965	 8.040965;
	25	 26	 0.00258	 0.126	 0.0	 251.0	 251.0	 251.0	 1.0	 0.0	 1	 -8.040965	 8.040965;
	26	 27	 0.00823	 0.1094	 0.0	 288.0	 288.0	 288.0	 1.0	 0.0	 1	 -8.040965	 8.040965;
	26	 28	 0.0081	 0.1098	 0.0	 287.0	 287.0	 287.0	 1.0	 0.0	 1	 -8.040965	 8.040965;
	26	 29	 0.00519	 0.099	 0.0	 319.0	 319.0	 319.0	 1.0	 0.0	 1	 -8.040965	 8.040965;
	26	 30	 0.00583	 0.1167	 0.0	 271.0	 271.0	 271.0	 1.0	 0.0	 1	 -8.040965	 8.040965;
	31	 32	 0.0035	 0.119	 0.0	 266.0	 266.0	 266.0	 1.0	 0.0	 1	 -8.040965	 8.040965;
	31	 33	 0.0035	 0.119	 0.0	 266.0	 266.0	 266.0	 1.0	 0.0	 1	 -8.040965	 8.040965;
	31	 34	 0.00049	 0.11797	 0.0	 268.0	 268.0	 268.0	 1.0	 0.0	 1	 -8.040965	 8.040965;
	35	 36	 0.00425	 0.0649	 0.0	 486.0	 486.0	 486.0	 1.0	 0.0	 1	 -8.040965	 8.040965;
	35	 37	 0.16	 1.6	 0.0	 20.0	 20.0	 20.0	 1.0	 0.0	 1	 -8.040965	 8.040965;
	39	 40	 0.0011	 0.0525	 0.0	 602.0	 602.0	 602.0	 1.0	 0.0	 1	 -8.040965	 8.040965;
	41	 42	 0.0064	 0.1285	 0.0	 246.0	 246.0	 246.0	 1.0	 0.0	 1	 -8.040965	 8.040965;
	41	 43	 0.0064	 0.1285	 0.0	 246.0	 246.0	 246.0	 1.0	 0.0	 1	 -8.040965	 8.040965;
	44	 45	 0.05	 0.1	 0.0	 283.0	 283.0	 283.0	 1.0	 0.0	 1	 -8.040965	 8.040965;
	49	 50	 0.00522	 0.07661	 0.0	 412.0	 412.0	 412.0	 1.0	 0.0	 1	 -8.040965	 8.040965;
	49	 51	 0.00522	 0.07661	 0.0	 412.0	 412.0	 412.0	 1.0	 0.0	 1	 -8.040965	 8.040965;
	49	 52	 0.00522	 0.07661	 0.0	 412.0	 412.0	 412.0	 1.0	 0.0	 1	 -8.040965	 8.040965;
	49	 53	 0.00522	 0.07661	 0.0	 412.0	 412.0	 412.0	 1.0	 0.0	 1	 -8.040965	 8.040965;
	57	 58	 0.0011	 0.0427	 0.0	 740.0	 740.0	 740.0	 1.0	 0.0	 1	 -8.040965	 8.040965;
	61	 60	 0.002	 0.0515	 0.0	 613.0	 613.0	 613.0	 1.0	 0.0	 1	 -8.040965	 8.040965;
	62	 63	 0.00256	 0.12	 0.0	 264.0	 264.0	 264.0	 1.0	 0.0	 1	 -8.040965	 8.040965;
	64	 65	 0.00256	 0.12	 0.0	 264.0	 264.0	 264.0	 1.0	 0.0	 1	 -8.040965	 8.040965;
	66	 67	 0.00256	 0.12	 0.0	 264.0	 264.0	 264.0	 1.0	 0.0	 1	 -8.040965	 8.040965;
	66	 68	 0.00256	 0.12	 0.0	 264.0	 264.0	 264.0	 1.0	 0.0	 1	 -8.040965	 8.040965;
	69	 70	 0.0027	 0.06	 0.0	 526.0	 526.0	 526.0	 1.0	 0.0	 1	 -8.040965	 8.040965;
	71	 72	 0.0011	 0.06	 0.0	 527.0	 527.0	 527.0	 1.0	 0.0	 1	 -8.040965	 8.040965;
	73	 74	 0.01	 0.1	 0.0	 315.0	 315.0	 315.0	 1.0	 0.0	 1	 -8.040965	 8.040965;
	76	 77	 0.0018	 0.0608	 0.0	 520.0	 520.0	 520.0	 1.0	 0.0	 1	 -8.040965	 8.040965;
	77	 78	 0.00378	 0.0806	 0.0	 392.0	 392.0	 392.0	 1.0	 0.0	 1	 -8.040965	 8.040965;
	78	 79	 0.015	 0.27	 0.0	 117.0	 117.0	 117.0	 1.0	 0.0	 1	 -8.040965	 8.040965;
	82	 83	 0.0015	 0.0031	 0.0	 9173.0	 9173.0	 9173.0	 1.0	 0.0	 1	 -8.040965	 8.040965;
	85	 84	 0.003	 0.06	 0.0	 526.0	 526.0	 526.0	 1.0	 0.0	 1	 -8.040965	 8.040965;
	87	 86	 0.003	 0.06	 0.0	 526.0	 526.0	 526.0	 1.0	 0.0	 1	 -8.040965	 8.040965;
	89	 88	 0.0036	 0.072	 0.0	 439.0	 439.0	 439.0	 1.0	 0.0	 1	 -8.040965	 8.040965;
	91	 90	 0.0036	 0.072	 0.0	 439.0	 439.0	 439.0	 1.0	 0.0	 1	 -8.040965	 8.040965;
	94	 95	 0.00615	 0.12	 0.0	 263.0	 263.0	 263.0	 1.0	 0.0	 1	 -8.040965	 8.040965;
	94	 102	 0.00615	 0.12	 0.0	 263.0	 263.0	 263.0	 1.0	 0.0	 1	 -8.040965	 8.040965;
	97	 98	 0.00282	 0.09414	 0.0	 336.0	 336.0	 336.0	 1.0	 0.0	 1	 -8.040965	 8.040965;
	97	 99	 0.00282	 0.09414	 0.0	 336.0	 336.0	 336.0	 1.0	 0.0	 1	 -8.040965	 8.040965;
	97	 100	 0.0042	 0.14004	 0.0	 226.0	 226.0	 226.0	 1.0	 0.0	 1	 -8.040965	 8.040965;
	97	 101	 0.0042	 0.14004	 0.0	 226.0	 226.0	 226.0	 1.0	 0.0	 1	 -8.040965	 8.040965;
	103	 104	 0.00347	 0.115	 0.0	 275.0	 275.0	 275.0	 1.0	 0.0	 1	 -8.040965	 8.040965;
	104	 105	 0.006	 0.06	 0.0	 524.0	 524.0	 524.0	 1.0	 0.0	 1	 -8.040965	 8.040965;
	104	 107	 0.0044	 0.072	 0.0	 438.0	 438.0	 438.0	 1.0	 0.0	 1	 -8.040965	 8.040965;
	105	 106	 0.0045	 0.045	 0.0	 699.0	 699.0	 699.0	 1.0	 0.0	 1	 -8.040965	 8.040965;
	105	 108	 0.0044	 0.072	 0.0	 438.0	 438.0	 438.0	 1.0	 0.0	 1	 -8.040965	 8.040965;
	109	 110	 0.00635	 0.0987	 0.0	 320.0	 320.0	 320.0	 1.0	 0.0	 1	 -8.040965	 8.040965;
	110	 111	 0.0045	 0.045	 0.0	 699.0	 699.0	 699.0	 1.0	 0.0	 1	 -8.040965	 8.040965;
	110	 112	 0.0044	 0.072	 0.0	 438.0	 438.0	 438.0	 1.0	 0.0	 1	 -8.040965	 8.040965;
	113	 114	 0.00477	 0.0917	 0.0	 344.0	 344.0	 344.0	 1.0	 0.0	 1	 -8.040965	 8.040965;
	115	 116	 0.00447	 0.1218	 0.0	 260.0	 260.0	 260.0	 1.0	 0.0	 1	 -8.040965	 8.040965;
	116	 118	 0.00536	 0.13302	 0.0	 238.0	 238.0	 238.0	 1.0	 0.0	 1	 -8.040965	 8.040965;
	117	 118	 0.00431	 0.07931	 0.0	 398.0	 398.0	 398.0	 1.0	 0.0	 1	 -8.040965	 8.040965;
	119	 120	 0.00552	 0.0987	 0.0	 320.0	 320.0	 320.0	 1.0	 0.0	 1	 -8.040965	 8.040965;
	120	 121	 0.004	 0.04	 0.0	 786.0	 786.0	 786.0	 1.0	 0.0	 1	 -8.040965	 8.040965;
	120	 122	 0.0044	 0.072	 0.0	 438.0	 438.0	 438.0	 1.0	 0.0	 1	 -8.040965	 8.040965;
	123	 124	 0.00535	 0.12914	 0.0	 245.0	 245.0	 245.0	 1.0	 0.0	 1	 -8.040965	 8.040965;
	125	 126	 0.00297	 0.1051	 0.0	 301.0	 301.0	 301.0	 1.0	 0.0	 1	 -8.040965	 8.040965;
	125	 127	 0.00297	 0.1051	 0.0	 301.0	 301.0	 301.0	 1.0	 0.0	 1	 -8.040965	 8.040965;
	126	 128	 0.0006	 0.06	 0.0	 62.0	 62.0	 62.0	 1.0	 0.0	 1	 -8.040965	 8.040965;
	127	 129	 0.0006	 0.06	 0.0	 62.0	 62.0	 62.0	 1.0	 0.0	 1	 -8.040965	 8.040965;
	130	 131	 0.00499	 0.1432	 0.0	 221.0	 221.0	 221.0	 1.0	 0.0	 1	 -8.040965	 8.040965;
	132	 133	 0.00492	 0.1179	 0.0	 268.0	 268.0	 268.0	 1.0	 0.0	 1	 -8.040965	 8.040965;
	133	 134	 0.008	 0.08	 0.0	 393.0	 393.0	 393.0	 1.0	 0.0	 1	 -8.040965	 8.040965;
	134	 135	 0.006	 0.06	 0.0	 524.0	 524.0	 524.0	 1.0	 0.0	 1	 -8.040965	 8.040965;
	134	 136	 0.00011	 0.0018	 0.0	 26.0	 26.0	 26.0	 1.0	 0.0	 1	 -8.040965	 8.040965;
	137	 138	 0.0042	 0.14004	 0.0	 226.0	 226.0	 226.0	 1.0	 0.0	 1	 -8.040965	 8.040965;
	137	 139	 0.0042	 0.14044	 0.0	 225.0	 225.0	 225.0	 1.0	 0.0	 1	 -8.040965	 8.040965;
	138	 140	 0.0044	 0.044	 0.0	 715.0	 715.0	 715.0	 1.0	 0.0	 1	 -8.040965	 8.040965;
	139	 140	 0.0044	 0.044	 0.0	 715.0	 715.0	 715.0	 1.0	 0.0	 1	 -8.040965	 8.040965;
	139	 141	 0.00629	 0.06169	 0.0	 21.0	 21.0	 21.0	 1.0	 0.0	 1	 -8.040965	 8.040965;
	143	 144	 0.00694	 0.13939	 0.0	 227.0	 227.0	 227.0	 1.0	 0.0	 1	 -8.040965	 8.040965;
	143	 145	 0.0042	 0.0843	 0.0	 375.0	 375.0	 375.0	 1.0	 0.0	 1	 -8.040965	 8.040965;
	143	 146	 0.01002	 0.10017	 0.0	 314.0	 314.0	 314.0	 1.0	 0.0	 1	 -8.040965	 8.040965;
	143	 147	 0.012	 0.12	 0.0	 262.0	 262.0	 262.0	 1.0	 0.0	 1	 -8.040965	 8.040965;
	144	 148	 0.00573	 0.0573	 0.0	 549.0	 549.0	 549.0	 1.0	 0.0	 1	 -8.040965	 8.040965;
	146	 152	 0.001	 0.01	 0.0	 13.0	 13.0	 13.0	 1.0	 0.0	 1	 -8.040965	 8.040965;
	147	 149	 0.00573	 0.0573	 0.0	 549.0	 549.0	 549.0	 1.0	 0.0	 1	 -8.040965	 8.040965;
	148	 152	 0.00573	 0.0573	 0.0	 549.0	 549.0	 549.0	 1.0	 0.0	 1	 -8.040965	 8.040965;
	149	 153	 0.96	 9.55	 0.0	 4.0	 4.0	 4.0	 1.0	 0.0	 1	 -8.040965	 8.040965;
	150	 153	 2.667	 26.67	 0.0	 2.0	 2.0	 2.0	 1.0	 0.0	 1	 -8.040965	 8.040965;
	151	 153	 2.667	 26.67	 0.0	 2.0	 2.0	 2.0	 1.0	 0.0	 1	 -8.040965	 8.040965;
	152	 153	 0.00288	 0.02865	 0.0	 13.0	 13.0	 13.0	 1.0	 0.0	 1	 -8.040965	 8.040965;
	152	 154	 2.667	 26.67	 0.0	 2.0	 2.0	 2.0	 1.0	 0.0	 1	 -8.040965	 8.040965;
	157	 156	 0.00563	 0.12099	 0.0	 261.0	 261.0	 261.0	 1.0	 0.0	 1	 -8.040965	 8.040965;
	158	 159	 0.00347	 0.115	 0.0	 275.0	 275.0	 275.0	 1.0	 0.0	 1	 -8.040965	 8.040965;
	159	 160	 0.00011	 0.0018	 0.0	 9900.0	 9900.0	 9900.0	 1.0	 0.0	 1	 -8.040965	 8.040965;
	161	 163	 0.006	 0.1078	 0.0	 293.0	 293.0	 293.0	 1.0	 0.0	 1	 -8.040965	 8.040965;
	163	 162	 0.006	 0.06	 0.0	 524.0	 524.0	 524.0	 1.0	 0.0	 1	 -8.040965	 8.040965;
	162	 164	 0.0044	 0.044	 0.0	 715.0	 715.0	 715.0	 1.0	 0.0	 1	 -8.040965	 8.040965;
	163	 165	 0.0044	 0.072	 0.0	 438.0	 438.0	 438.0	 1.0	 0.0	 1	 -8.040965	 8.040965;
	166	 167	 0.00454	 0.1077	 0.0	 294.0	 294.0	 294.0	 1.0	 0.0	 1	 -8.040965	 8.040965;
	167	 168	 0.0044	 0.044	 0.0	 715.0	 715.0	 715.0	 1.0	 0.0	 1	 -8.040965	 8.040965;
	167	 169	 0.0044	 0.072	 0.0	 26.0	 26.0	 26.0	 1.0	 0.0	 1	 -8.040965	 8.040965;
	167	 171	 0.0063	 0.0693	 0.0	 454.0	 454.0	 454.0	 1.0	 0.0	 1	 -8.040965	 8.040965;
	172	 173	 0.00508	 0.07896	 0.0	 400.0	 400.0	 400.0	 1.0	 0.0	 1	 -8.040965	 8.040965;
	173	 174	 0.0045	 0.045	 0.0	 699.0	 699.0	 699.0	 1.0	 0.0	 1	 -8.040965	 8.040965;
	173	 175	 0.0044	 0.072	 0.0	 438.0	 438.0	 438.0	 1.0	 0.0	 1	 -8.040965	 8.040965;
	177	 176	 0.00363	 0.12	 0.0	 264.0	 264.0	 264.0	 1.0	 0.0	 1	 -8.040965	 8.040965;
	188	 178	 0.005	 0.12	 0.0	 263.0	 263.0	 263.0	 1.0	 0.0	 1	 -8.040965	 8.040965;
	188	 179	 0.00501	 0.12	 0.0	 263.0	 263.0	 263.0	 1.0	 0.0	 1	 -8.040965	 8.040965;
	188	 180	 0.00501	 0.12	 0.0	 263.0	 263.0	 263.0	 1.0	 0.0	 1	 -8.040965	 8.040965;
...
];

% INFO    : === Translation Options ===
% INFO    : Phase Angle Bound:           8.040965 (deg.)
% INFO    : AC OPF Solution File:        ./nesta_case189_edin__sad.m.opf.sol
% INFO    : 
% INFO    : === Voltage Setpoint Replacement Notes ===
% INFO    : Bus 1	: V=1.0353, theta=-6.84504 -> V=1.04911, theta=-8.36872
% INFO    : Bus 2	: V=1.06997, theta=0.49451 -> V=1.0838, theta=-1.22364
% INFO    : Bus 3	: V=1.06858, theta=-0.20615 -> V=1.08241, theta=-1.90615
% INFO    : Bus 4	: V=1.05353, theta=-6.87111 -> V=1.06711, theta=-8.39413
% INFO    : Bus 5	: V=1.06206, theta=-0.36436 -> V=1.07616, theta=-2.06445
% INFO    : Bus 6	: V=1.06206, theta=-0.36471 -> V=1.07616, theta=-2.06479
% INFO    : Bus 7	: V=1.05602, theta=-4.97662 -> V=1.06753, theta=-6.62089
% INFO    : Bus 8	: V=1.07447, theta=-3.05031 -> V=1.0858, theta=-4.73525
% INFO    : Bus 9	: V=1.07564, theta=-2.92407 -> V=1.08696, theta=-4.61163
% INFO    : Bus 10	: V=1.09931, theta=0.0 -> V=1.1, theta=-0.0
% INFO    : Bus 11	: V=1.06215, theta=-4.45222 -> V=1.07694, theta=-7.05448
% INFO    : Bus 12	: V=1.05314, theta=-5.10127 -> V=1.06474, theta=-6.79914
% INFO    : Bus 13	: V=1.09781, theta=5.68528 -> V=1.1, theta=1.24182
% INFO    : Bus 14	: V=1.1, theta=-3.24208 -> V=1.1, theta=-4.06275
% INFO    : Bus 15	: V=1.05686, theta=-4.98702 -> V=1.06837, theta=-6.63107
% INFO    : Bus 16	: V=1.07714, theta=-5.04178 -> V=1.08844, theta=-6.68468
% INFO    : Bus 17	: V=1.03597, theta=-6.94378 -> V=1.04959, theta=-8.5299
% INFO    : Bus 18	: V=1.08559, theta=-7.08008 -> V=1.09861, theta=-8.66283
% INFO    : Bus 19	: V=1.0829, theta=1.06774 -> V=1.09619, theta=-0.71947
% INFO    : Bus 20	: V=1.03613, theta=-6.94469 -> V=1.04974, theta=-8.5308
% INFO    : Bus 21	: V=1.03195, theta=-7.19973 -> V=1.04604, theta=-8.6845
% INFO    : Bus 22	: V=1.01904, theta=-2.0662 -> V=1.03426, theta=-3.74597
% INFO    : Bus 23	: V=1.03776, theta=-1.37249 -> V=1.05249, theta=-3.06258
% INFO    : Bus 24	: V=1.0172, theta=-2.33433 -> V=1.03257, theta=-4.01689
% INFO    : Bus 25	: V=1.01371, theta=-9.01971 -> V=1.02908, theta=-10.30009
% INFO    : Bus 26	: V=1.02849, theta=-6.62217 -> V=1.04425, theta=-7.78815
% INFO    : Bus 27	: V=1.04068, theta=-6.67328 -> V=1.05646, theta=-7.69217
% INFO    : Bus 28	: V=1.04251, theta=-5.00025 -> V=1.05839, theta=-5.81528
% INFO    : Bus 29	: V=1.03576, theta=-5.94948 -> V=1.05142, theta=-7.13548
% INFO    : Bus 30	: V=1.02957, theta=-3.05929 -> V=1.0457, theta=-4.71467
% INFO    : Bus 31	: V=1.0477, theta=-1.95163 -> V=1.06195, theta=-3.88938
% INFO    : Bus 32	: V=1.05476, theta=-1.28381 -> V=1.06892, theta=-3.23925
% INFO    : Bus 33	: V=1.0592, theta=-1.00438 -> V=1.07318, theta=-3.35274
% INFO    : Bus 34	: V=1.0477, theta=-1.95163 -> V=1.06195, theta=-3.88938
% INFO    : Bus 35	: V=1.03287, theta=-2.60325 -> V=1.04863, theta=-4.32183
% INFO    : Bus 36	: V=1.03656, theta=-0.80441 -> V=1.05228, theta=-2.5765
% INFO    : Bus 37	: V=1.00796, theta=-4.98759 -> V=1.02414, theta=-6.63321
% INFO    : Bus 38	: V=1.03287, theta=-2.60357 -> V=1.04862, theta=-4.32214
% INFO    : Bus 39	: V=0.99976, theta=-10.38029 -> V=1.01564, theta=-11.46678
% INFO    : Bus 40	: V=1.00619, theta=-8.53935 -> V=1.02207, theta=-9.66507
% INFO    : Bus 41	: V=0.99999, theta=-10.3841 -> V=1.01587, theta=-11.46018
% INFO    : Bus 42	: V=1.02755, theta=-7.44837 -> V=1.04306, theta=-8.61338
% INFO    : Bus 43	: V=1.02839, theta=-9.13595 -> V=1.04419, theta=-7.90811
% INFO    : Bus 44	: V=1.01417, theta=-2.88232 -> V=1.02987, theta=-4.57337
% INFO    : Bus 45	: V=1.00948, theta=-3.03034 -> V=1.02525, theta=-4.7169
% INFO    : Bus 46	: V=1.01536, theta=-8.88276 -> V=1.03049, theta=-10.15185
% INFO    : Bus 47	: V=1.00619, theta=-8.53935 -> V=1.02207, theta=-9.66508
% INFO    : Bus 48	: V=0.99976, theta=-10.38031 -> V=1.01564, theta=-11.46679
% INFO    : Bus 49	: V=1.03672, theta=-8.04133 -> V=1.05318, theta=-9.32495
% INFO    : Bus 50	: V=1.0534, theta=-5.59795 -> V=1.06962, theta=-6.99674
% INFO    : Bus 51	: V=1.05129, theta=-8.09621 -> V=1.06753, theta=-9.37816
% INFO    : Bus 52	: V=1.05368, theta=-3.59115 -> V=1.06998, theta=-5.01134
% INFO    : Bus 53	: V=1.05129, theta=-8.09621 -> V=1.06753, theta=-9.37816
% INFO    : Bus 54	: V=1.0285, theta=-2.89674 -> V=1.04433, theta=-4.60657
% INFO    : Bus 55	: V=1.03603, theta=-8.08136 -> V=1.05251, theta=-9.36352
% INFO    : Bus 56	: V=1.0244, theta=-8.93097 -> V=1.04107, theta=-10.18163
% INFO    : Bus 57	: V=0.99472, theta=-10.9689 -> V=1.01067, theta=-12.12561
% INFO    : Bus 58	: V=1.0187, theta=-9.07256 -> V=1.03533, theta=-10.31295
% INFO    : Bus 59	: V=1.01589, theta=-9.19355 -> V=1.03259, theta=-10.43071
% INFO    : Bus 60	: V=0.93336, theta=-18.36541 -> V=0.95042, theta=-19.27311
% INFO    : Bus 61	: V=0.98155, theta=-11.96841 -> V=0.99755, theta=-13.09256
% INFO    : Bus 62	: V=0.98299, theta=-11.83588 -> V=0.99896, theta=-12.96421
% INFO    : Bus 63	: V=0.92164, theta=-20.16424 -> V=0.9391, theta=-21.00517
% INFO    : Bus 64	: V=0.98433, theta=-11.75183 -> V=1.00026, theta=-12.8827
% INFO    : Bus 65	: V=0.96616, theta=-15.3505 -> V=0.98245, theta=-16.36519
% INFO    : Bus 66	: V=0.98311, theta=-11.87782 -> V=0.99907, theta=-13.00478
% INFO    : Bus 67	: V=0.95056, theta=-17.74253 -> V=0.96725, theta=-18.67561
% INFO    : Bus 68	: V=0.96169, theta=-15.93192 -> V=0.97809, theta=-16.92703
% INFO    : Bus 69	: V=1.0202, theta=-9.13233 -> V=1.03693, theta=-10.3749
% INFO    : Bus 70	: V=1.00664, theta=-10.24038 -> V=1.0236, theta=-11.44702
% INFO    : Bus 71	: V=0.98494, theta=-11.67798 -> V=1.00086, theta=-12.81116
% INFO    : Bus 72	: V=0.98651, theta=-7.88816 -> V=0.9993, theta=-9.13744
% INFO    : Bus 73	: V=0.98586, theta=-7.92898 -> V=0.99867, theta=-9.17723
% INFO    : Bus 74	: V=0.97442, theta=-8.9073 -> V=0.98738, theta=-10.13032
% INFO    : Bus 75	: V=0.99575, theta=-10.75155 -> V=1.01163, theta=-11.84391
% INFO    : Bus 76	: V=0.97125, theta=-14.48723 -> V=0.98817, theta=-16.01566
% INFO    : Bus 77	: V=0.9617, theta=-12.77385 -> V=0.98425, theta=-15.17271
% INFO    : Bus 78	: V=0.95853, theta=-13.15466 -> V=0.98116, theta=-15.53622
% INFO    : Bus 79	: V=0.95853, theta=-13.15466 -> V=0.98116, theta=-15.53622
% INFO    : Bus 80	: V=0.96906, theta=-14.77841 -> V=0.98602, theta=-16.29694
% INFO    : Bus 81	: V=0.96868, theta=-14.90716 -> V=0.98565, theta=-16.4213
% INFO    : Bus 82	: V=1.01524, theta=-9.23154 -> V=1.03195, theta=-10.46754
% INFO    : Bus 83	: V=1.01428, theta=-9.26063 -> V=1.03101, theta=-10.4957
% INFO    : Bus 84	: V=1.01939, theta=-9.17209 -> V=1.03614, theta=-10.41371
% INFO    : Bus 85	: V=1.01241, theta=-9.68121 -> V=1.02927, theta=-10.90639
% INFO    : Bus 86	: V=1.01481, theta=-9.24382 -> V=1.03153, theta=-10.47953
% INFO    : Bus 87	: V=1.00923, theta=-9.50873 -> V=1.02604, theta=-10.73587
% INFO    : Bus 88	: V=0.98428, theta=-8.19367 -> V=0.99717, theta=-9.4363
% INFO    : Bus 89	: V=0.97772, theta=-8.8396 -> V=0.9907, theta=-10.06553
% INFO    : Bus 90	: V=0.98512, theta=-8.13919 -> V=0.99799, theta=-9.38289
% INFO    : Bus 91	: V=0.98168, theta=-8.48249 -> V=0.99459, theta=-9.71736
% INFO    : Bus 92	: V=0.98515, theta=-8.13341 -> V=0.99802, theta=-9.37724
% INFO    : Bus 93	: V=1.04878, theta=0.24478 -> V=1.05495, theta=-1.09647
% INFO    : Bus 94	: V=1.06878, theta=2.812 -> V=1.0733, theta=1.40603
% INFO    : Bus 95	: V=1.06878, theta=2.812 -> V=1.0733, theta=1.40603
% INFO    : Bus 96	: V=1.06418, theta=2.02157 -> V=1.06892, theta=0.66793
% INFO    : Bus 97	: V=1.08032, theta=2.47569 -> V=1.08317, theta=1.26511
% INFO    : Bus 98	: V=1.1, theta=3.95256 -> V=1.1, theta=3.07143
% INFO    : Bus 99	: V=1.1, theta=2.44443 -> V=1.1, theta=1.23844
% INFO    : Bus 100	: V=1.08032, theta=2.47569 -> V=1.08317, theta=1.26511
% INFO    : Bus 101	: V=1.08032, theta=2.47569 -> V=1.08317, theta=1.26511
% INFO    : Bus 102	: V=1.09741, theta=10.87893 -> V=1.1, theta=8.95683
% INFO    : Bus 103	: V=0.96183, theta=-11.10564 -> V=0.98601, theta=-14.26048
% INFO    : Bus 104	: V=0.95654, theta=-13.06751 -> V=0.98097, theta=-16.04077
% INFO    : Bus 105	: V=0.95474, theta=-13.26013 -> V=0.97921, theta=-16.2239
% INFO    : Bus 106	: V=0.95474, theta=-13.26013 -> V=0.97921, theta=-16.2239
% INFO    : Bus 107	: V=0.95654, theta=-13.06751 -> V=0.98097, theta=-16.04077
% INFO    : Bus 108	: V=0.95474, theta=-13.26013 -> V=0.97921, theta=-16.2239
% INFO    : Bus 109	: V=0.99212, theta=-3.00715 -> V=1.01334, theta=-9.21457
% INFO    : Bus 110	: V=0.9918, theta=-3.10986 -> V=1.01303, theta=-9.31302
% INFO    : Bus 111	: V=0.9918, theta=-3.10986 -> V=1.01303, theta=-9.31302
% INFO    : Bus 112	: V=0.9918, theta=-3.10986 -> V=1.01303, theta=-9.31302
% INFO    : Bus 113	: V=0.99125, theta=-4.43923 -> V=1.0128, theta=-10.59008
% INFO    : Bus 114	: V=0.99203, theta=-4.6023 -> V=1.01356, theta=-10.74629
% INFO    : Bus 115	: V=0.98438, theta=-6.49902 -> V=1.0063, theta=-12.56455
% INFO    : Bus 116	: V=0.98248, theta=-7.79623 -> V=1.00445, theta=-13.80573
% INFO    : Bus 117	: V=0.98579, theta=-7.55331 -> V=1.00769, theta=-13.57328
% INFO    : Bus 118	: V=0.98454, theta=-7.64326 -> V=1.00647, theta=-13.65936
% INFO    : Bus 119	: V=0.99208, theta=-1.87621 -> V=1.013, theta=-8.12702
% INFO    : Bus 120	: V=0.99082, theta=-2.02046 -> V=1.01177, theta=-8.26536
% INFO    : Bus 121	: V=0.99082, theta=-2.02046 -> V=1.01177, theta=-8.26536
% INFO    : Bus 122	: V=0.99082, theta=-2.02046 -> V=1.01177, theta=-8.26536
% INFO    : Bus 123	: V=1.04602, theta=8.79498 -> V=1.0488, theta=-0.08605
% INFO    : Bus 124	: V=1.04461, theta=8.45898 -> V=1.04739, theta=-0.42027
% INFO    : Bus 125	: V=1.08218, theta=13.5056 -> V=1.0718, theta=3.63182
% INFO    : Bus 126	: V=1.1, theta=15.50343 -> V=1.08131, theta=5.69686
% INFO    : Bus 127	: V=1.1, theta=18.59253 -> V=1.08396, theta=7.4447
% INFO    : Bus 128	: V=1.1, theta=15.50343 -> V=1.08131, theta=5.69686
% INFO    : Bus 129	: V=1.1, theta=18.59253 -> V=1.08396, theta=7.4447
% INFO    : Bus 130	: V=1.07722, theta=12.86364 -> V=1.06537, theta=2.94403
% INFO    : Bus 131	: V=1.07478, theta=12.22946 -> V=1.0629, theta=2.29562
% INFO    : Bus 132	: V=1.06074, theta=12.08207 -> V=1.04444, theta=2.0737
% INFO    : Bus 133	: V=1.05721, theta=11.80819 -> V=1.03983, theta=1.79195
% INFO    : Bus 134	: V=1.05555, theta=11.64792 -> V=1.03813, theta=1.62626
% INFO    : Bus 135	: V=1.05555, theta=11.64792 -> V=1.03813, theta=1.62626
% INFO    : Bus 136	: V=1.05555, theta=11.64792 -> V=1.03813, theta=1.62626
% INFO    : Bus 137	: V=1.04754, theta=11.78564 -> V=1.02961, theta=1.65498
% INFO    : Bus 138	: V=1.02937, theta=14.63446 -> V=1.00754, theta=3.6419
% INFO    : Bus 139	: V=1.02777, theta=13.67481 -> V=1.00636, theta=3.02516
% INFO    : Bus 140	: V=1.02853, theta=14.15501 -> V=1.00694, theta=3.33371
% INFO    : Bus 141	: V=1.02823, theta=13.90872 -> V=1.00678, theta=3.26936
% INFO    : Bus 142	: V=1.02823, theta=13.9091 -> V=1.00678, theta=3.26976
% INFO    : Bus 143	: V=1.09834, theta=15.29497 -> V=1.07706, theta=5.56268
% INFO    : Bus 144	: V=1.1, theta=16.14817 -> V=1.07808, theta=6.45289
% INFO    : Bus 145	: V=1.09834, theta=15.29497 -> V=1.07706, theta=5.56268
% INFO    : Bus 146	: V=1.09904, theta=15.67334 -> V=1.07748, theta=5.95734
% INFO    : Bus 147	: V=1.09835, theta=15.30009 -> V=1.07706, theta=5.56802
% INFO    : Bus 148	: V=1.09955, theta=15.92972 -> V=1.07779, theta=6.22486
% INFO    : Bus 149	: V=1.09835, theta=15.30253 -> V=1.07707, theta=5.57057
% INFO    : Bus 150	: V=1.09911, theta=15.70987 -> V=1.07752, theta=5.99545
% INFO    : Bus 151	: V=1.09911, theta=15.70987 -> V=1.07752, theta=5.99545
% INFO    : Bus 152	: V=1.09912, theta=15.71109 -> V=1.07752, theta=5.99672
% INFO    : Bus 153	: V=1.09911, theta=15.70987 -> V=1.07752, theta=5.99545
% INFO    : Bus 154	: V=1.09912, theta=15.71109 -> V=1.07752, theta=5.99672
% INFO    : Bus 155	: V=1.08401, theta=-0.29087 -> V=1.08117, theta=-7.3834
% INFO    : Bus 156	: V=1.07588, theta=-1.46153 -> V=1.07301, theta=-8.56005
% INFO    : Bus 157	: V=1.08191, theta=-0.4386 -> V=1.07906, theta=-7.53168
% INFO    : Bus 158	: V=1.07963, theta=-0.7394 -> V=1.07678, theta=-7.83424
% INFO    : Bus 159	: V=1.07475, theta=-1.51916 -> V=1.07188, theta=-8.61817
% INFO    : Bus 160	: V=1.07475, theta=-1.51916 -> V=1.07188, theta=-8.61817
% INFO    : Bus 161	: V=1.09163, theta=-1.6926 -> V=1.09032, theta=-7.7377
% INFO    : Bus 162	: V=1.09069, theta=-1.92204 -> V=1.08938, theta=-7.9677
% INFO    : Bus 163	: V=1.09107, theta=-1.84029 -> V=1.08975, theta=-7.88575
% INFO    : Bus 164	: V=1.09069, theta=-1.92204 -> V=1.08938, theta=-7.9677
% INFO    : Bus 165	: V=1.09107, theta=-1.84029 -> V=1.08975, theta=-7.88575
% INFO    : Bus 166	: V=1.1, theta=-3.47809 -> V=1.1, theta=-7.95803
% INFO    : Bus 167	: V=1.09929, theta=-3.84772 -> V=1.09929, theta=-8.32766
% INFO    : Bus 168	: V=1.09929, theta=-3.84772 -> V=1.09929, theta=-8.32766
% INFO    : Bus 169	: V=1.09929, theta=-3.84772 -> V=1.09929, theta=-8.32766
% INFO    : Bus 170	: V=1.07209, theta=-1.23674 -> V=1.084, theta=-9.13025
% INFO    : Bus 171	: V=1.09929, theta=-3.84772 -> V=1.09929, theta=-8.32766
% INFO    : Bus 172	: V=1.07255, theta=-3.63156 -> V=1.08672, theta=-7.92019
% INFO    : Bus 173	: V=1.07232, theta=-3.6991 -> V=1.0865, theta=-7.98598
% INFO    : Bus 174	: V=1.07232, theta=-3.6991 -> V=1.0865, theta=-7.98598
% INFO    : Bus 175	: V=1.07232, theta=-3.6991 -> V=1.0865, theta=-7.98598
% INFO    : Bus 176	: V=1.08051, theta=1.14856 -> V=1.07643, theta=-6.38598
% INFO    : Bus 177	: V=1.08397, theta=0.53094 -> V=1.07982, theta=-7.0082
% INFO    : Bus 178	: V=1.07976, theta=0.05624 -> V=1.07557, theta=-7.48655
% INFO    : Bus 179	: V=1.08335, theta=0.35453 -> V=1.07918, theta=-7.18593
% INFO    : Bus 180	: V=1.08335, theta=0.35453 -> V=1.07918, theta=-7.18593
% INFO    : Bus 181	: V=1.08335, theta=0.35453 -> V=1.07918, theta=-7.18593
% INFO    : Bus 182	: V=1.08335, theta=0.35453 -> V=1.07918, theta=-7.18593
% INFO    : Bus 183	: V=1.08335, theta=0.35453 -> V=1.07918, theta=-7.18593
% INFO    : Bus 184	: V=1.07975, theta=0.05539 -> V=1.07557, theta=-7.4874
% INFO    : Bus 185	: V=1.05707, theta=-2.23917 -> V=1.05414, theta=-9.34196
% INFO    : Bus 186	: V=1.05724, theta=-2.05922 -> V=1.05431, theta=-9.16101
% INFO    : Bus 187	: V=1.05707, theta=-2.23917 -> V=1.05414, theta=-9.34196
% INFO    : Bus 188	: V=1.08335, theta=0.35453 -> V=1.07918, theta=-7.18593
% INFO    : Bus 189	: V=1.08334, theta=0.35428 -> V=1.07917, theta=-7.18619
% INFO    : 
% INFO    : === Generator Setpoint Replacement Notes ===
% INFO    : Gen at bus 10	: Pg=79.166, Qg=38.0 -> Pg=105.844, Qg=30.701
% INFO    : Gen at bus 10	: Vg=1.09931 -> Vg=1.1
% INFO    : Gen at bus 2	: Pg=115.0, Qg=34.0 -> Pg=115.0, Qg=34.0
% INFO    : Gen at bus 2	: Vg=1.06997 -> Vg=1.0838
% INFO    : Gen at bus 3	: Pg=95.0, Qg=34.0 -> Pg=95.0, Qg=34.0
% INFO    : Gen at bus 3	: Vg=1.06858 -> Vg=1.08241
% INFO    : Gen at bus 4	: Pg=0.0, Qg=17.0 -> Pg=0.0, Qg=17.0
% INFO    : Gen at bus 4	: Vg=1.05353 -> Vg=1.06711
% INFO    : Gen at bus 8	: Pg=30.0, Qg=15.0 -> Pg=30.0, Qg=15.0
% INFO    : Gen at bus 8	: Vg=1.07447 -> Vg=1.0858
% INFO    : Gen at bus 9	: Pg=32.0, Qg=16.0 -> Pg=32.0, Qg=16.0
% INFO    : Gen at bus 9	: Vg=1.07564 -> Vg=1.08696
% INFO    : Gen at bus 13	: Pg=145.492, Qg=42.0 -> Pg=110.117, Qg=30.274
% INFO    : Gen at bus 13	: Vg=1.09781 -> Vg=1.1
% INFO    : Gen at bus 14	: Pg=26.062, Qg=33.998 -> Pg=38.035, Qg=25.621
% INFO    : Gen at bus 14	: Vg=1.1 -> Vg=1.1
% INFO    : Gen at bus 16	: Pg=0.0, Qg=17.0 -> Pg=0.0, Qg=17.0
% INFO    : Gen at bus 16	: Vg=1.07714 -> Vg=1.08844
% INFO    : Gen at bus 18	: Pg=0.0, Qg=42.0 -> Pg=0.0, Qg=42.0
% INFO    : Gen at bus 18	: Vg=1.08559 -> Vg=1.09861
% INFO    : Gen at bus 19	: Pg=124.0, Qg=42.0 -> Pg=124.0, Qg=42.0
% INFO    : Gen at bus 19	: Vg=1.0829 -> Vg=1.09619
% INFO    : Gen at bus 27	: Pg=0.0, Qg=11.6 -> Pg=2.562, Qg=11.6
% INFO    : Gen at bus 27	: Vg=1.04068 -> Vg=1.05646
% INFO    : Gen at bus 28	: Pg=28.495, Qg=11.6 -> Pg=35.508, Qg=11.6
% INFO    : Gen at bus 28	: Vg=1.04251 -> Vg=1.05839
% INFO    : Gen at bus 29	: Pg=13.0, Qg=7.0 -> Pg=13.0, Qg=7.0
% INFO    : Gen at bus 29	: Vg=1.03576 -> Vg=1.05142
% INFO    : Gen at bus 32	: Pg=11.0, Qg=6.0 -> Pg=11.0, Qg=6.0
% INFO    : Gen at bus 32	: Vg=1.05476 -> Vg=1.06892
% INFO    : Gen at bus 33	: Pg=15.708, Qg=9.9 -> Pg=9.261, Qg=9.9
% INFO    : Gen at bus 33	: Vg=1.0592 -> Vg=1.07318
% INFO    : Gen at bus 36	: Pg=52.0, Qg=3.3 -> Pg=52.0, Qg=3.3
% INFO    : Gen at bus 36	: Vg=1.03656 -> Vg=1.05228
% INFO    : Gen at bus 42	: Pg=42.0, Qg=21.0 -> Pg=42.0, Qg=21.0
% INFO    : Gen at bus 42	: Vg=1.02755 -> Vg=1.04306
% INFO    : Gen at bus 43	: Pg=18.528, Qg=22.0 -> Pg=52.24, Qg=22.0
% INFO    : Gen at bus 43	: Vg=1.02839 -> Vg=1.04419
% INFO    : Gen at bus 50	: Pg=62.135, Qg=20.0 -> Pg=61.097, Qg=20.0
% INFO    : Gen at bus 50	: Vg=1.0534 -> Vg=1.06962
% INFO    : Gen at bus 51	: Pg=0.0, Qg=20.0 -> Pg=0.0, Qg=20.0
% INFO    : Gen at bus 51	: Vg=1.05129 -> Vg=1.06753
% INFO    : Gen at bus 52	: Pg=112.0, Qg=20.0 -> Pg=112.0, Qg=20.0
% INFO    : Gen at bus 52	: Vg=1.05368 -> Vg=1.06998
% INFO    : Gen at bus 53	: Pg=0.0, Qg=20.0 -> Pg=0.0, Qg=20.0
% INFO    : Gen at bus 53	: Vg=1.05129 -> Vg=1.06753
% INFO    : Gen at bus 98	: Pg=33.206, Qg=22.415 -> Pg=40.466, Qg=19.085
% INFO    : Gen at bus 98	: Vg=1.1 -> Vg=1.1
% INFO    : Gen at bus 99	: Pg=0.0, Qg=22.99 -> Pg=0.0, Qg=19.668
% INFO    : Gen at bus 99	: Vg=1.1 -> Vg=1.1
% INFO    : Gen at bus 102	: Pg=142.412, Qg=30.0 -> Pg=134.412, Qg=27.565
% INFO    : Gen at bus 102	: Vg=1.09741 -> Vg=1.1
% INFO    : Gen at bus 104	: Pg=0.0, Qg=3.3 -> Pg=1.259, Qg=3.3
% INFO    : Gen at bus 104	: Vg=0.95654 -> Vg=0.98097
% INFO    : Gen at bus 117	: Pg=6.0, Qg=2.5 -> Pg=6.0, Qg=2.5
% INFO    : Gen at bus 117	: Vg=0.98579 -> Vg=1.00769
% INFO    : Gen at bus 126	: Pg=40.0, Qg=18.205 -> Pg=40.0, Qg=9.377
% INFO    : Gen at bus 126	: Vg=1.1 -> Vg=1.08131
% INFO    : Gen at bus 127	: Pg=101.0, Qg=20.254 -> Pg=73.872, Qg=12.903
% INFO    : Gen at bus 127	: Vg=1.1 -> Vg=1.08396
% INFO    : Gen at bus 138	: Pg=58.0, Qg=-13.524 -> Pg=37.619, Qg=-16.0
% INFO    : Gen at bus 138	: Vg=1.02937 -> Vg=1.00754
% INFO    : Gen at bus 139	: Pg=0.0, Qg=-13.513 -> Pg=0.0, Qg=-16.0
% INFO    : Gen at bus 139	: Vg=1.02777 -> Vg=1.00636
% INFO    : Gen at bus 142	: Pg=7.0, Qg=0.064 -> Pg=7.0, Qg=0.0
% INFO    : Gen at bus 142	: Vg=1.02823 -> Vg=1.00678
% INFO    : Gen at bus 144	: Pg=21.0, Qg=0.837 -> Pg=21.0, Qg=0.0
% INFO    : Gen at bus 144	: Vg=1.1 -> Vg=1.07808
% INFO    : Gen at bus 186	: Pg=6.0, Qg=0.0 -> Pg=6.0, Qg=0.0
% INFO    : Gen at bus 186	: Vg=1.05724 -> Vg=1.05431
% INFO    : 
% INFO    : === Writing Matpower Case File Notes ===
